
 OpenBabel07202414163D

 35 36  0  0  0  0  0  0  0  0999 V2000
   -2.6243    1.9035   -4.6949 C   0  0  0  0  0  0  0  0  0  0  0  0
   -1.7461    1.1064   -3.7712 C   0  0  0  0  0  0  0  0  0  0  0  0
   -1.0239    0.0330   -4.3226 C   0  0  0  0  0  0  0  0  0  0  0  0
   -0.1803   -0.7088   -3.5140 C   0  0  0  0  0  0  0  0  0  0  0  0
    0.0185   -0.4431   -2.2134 N   0  0  0  0  0  0  0  0  0  0  0  0
   -0.6857    0.5931   -1.6920 C   0  0  0  0  0  0  0  0  0  0  0  0
   -1.5905    1.3904   -2.4012 C   0  0  0  0  0  0  0  0  0  0  0  0
   -2.3228    2.4441   -1.7903 N   0  0  0  0  0  0  0  0  0  0  0  0
   -2.4739    2.6236   -0.4219 C   0  0  0  0  0  0  0  0  0  0  0  0
   -2.0483    1.8737    0.4531 O   0  0  0  0  0  0  0  0  0  0  0  0
   -3.2615    3.8670   -0.0395 C   0  0  0  0  0  0  0  0  0  0  0  0
   -4.7524    3.6503    0.0581 C   0  0  0  0  0  0  0  0  0  0  0  0
   -5.2958    2.6569    0.8912 C   0  0  0  0  0  0  0  0  0  0  0  0
   -6.6820    2.4948    1.0231 C   0  0  0  0  0  0  0  0  0  0  0  0
   -7.5409    3.3398    0.3230 C   0  0  0  0  0  0  0  0  0  0  0  0
   -7.0096    4.3334   -0.5001 C   0  0  0  0  0  0  0  0  0  0  0  0
   -5.6318    4.4916   -0.6353 C   0  0  0  0  0  0  0  0  0  0  0  0
   -8.0716    5.3838   -1.3567 Cl  0  0  0  0  0  0  0  0  0  0  0  0
   -7.0671    1.4888    1.8678 O   0  0  0  0  0  0  0  0  0  0  0  0
   -8.4653    1.2756    2.0246 C   0  0  0  0  0  0  0  0  0  0  0  0
   -2.8314    1.3499   -5.6180 H   0  0  0  0  0  0  0  0  0  0  0  0
   -2.1290    2.8406   -4.9699 H   0  0  0  0  0  0  0  0  0  0  0  0
   -3.5939    2.1182   -4.2380 H   0  0  0  0  0  0  0  0  0  0  0  0
   -1.1211   -0.2355   -5.3703 H   0  0  0  0  0  0  0  0  0  0  0  0
    0.3739   -1.5576   -3.9036 H   0  0  0  0  0  0  0  0  0  0  0  0
   -0.4557    0.7681   -0.6461 H   0  0  0  0  0  0  0  0  0  0  0  0
   -2.8819    3.0295   -2.3970 H   0  0  0  0  0  0  0  0  0  0  0  0
   -3.0263    4.6680   -0.7503 H   0  0  0  0  0  0  0  0  0  0  0  0
   -2.8926    4.2127    0.9345 H   0  0  0  0  0  0  0  0  0  0  0  0
   -4.6369    2.0003    1.4615 H   0  0  0  0  0  0  0  0  0  0  0  0
   -8.6180    3.2524    0.4061 H   0  0  0  0  0  0  0  0  0  0  0  0
   -5.2459    5.2888   -1.2667 H   0  0  0  0  0  0  0  0  0  0  0  0
   -8.6061    0.4286    2.7036 H   0  0  0  0  0  0  0  0  0  0  0  0
   -8.9360    1.0161    1.0703 H   0  0  0  0  0  0  0  0  0  0  0  0
   -8.9480    2.1480    2.4773 H   0  0  0  0  0  0  0  0  0  0  0  0
  1  2  1  0  0  0  0
  1 21  1  0  0  0  0
  1 22  1  0  0  0  0
  1 23  1  0  0  0  0
  2  3  1  0  0  0  0
  2  7  2  0  0  0  0
  3  4  2  0  0  0  0
  3 24  1  0  0  0  0
  4  5  1  0  0  0  0
  4 25  1  0  0  0  0
  5  6  2  0  0  0  0
  6  7  1  0  0  0  0
  6 26  1  0  0  0  0
  7  8  1  0  0  0  0
  8  9  1  0  0  0  0
  8 27  1  0  0  0  0
  9 10  2  0  0  0  0
  9 11  1  0  0  0  0
 11 12  1  0  0  0  0
 11 28  1  0  0  0  0
 11 29  1  0  0  0  0
 12 13  1  0  0  0  0
 12 17  2  0  0  0  0
 13 14  2  0  0  0  0
 13 30  1  0  0  0  0
 14 15  1  0  0  0  0
 14 19  1  0  0  0  0
 15 16  2  0  0  0  0
 15 31  1  0  0  0  0
 16 17  1  0  0  0  0
 16 18  1  0  0  0  0
 17 32  1  0  0  0  0
 19 20  1  0  0  0  0
 20 33  1  0  0  0  0
 20 34  1  0  0  0  0
 20 35  1  0  0  0  0
M  END
$$$$
