14
./Mpro_complexes/Mpro-x0161_0_ligand.pdb
C         13.62500       -2.38100       24.31900
O         13.13500       -1.08500       24.56600
C         13.25300       -0.15400       23.52500
O         13.95000       -0.37000       22.59600
C         12.49300        1.16800       23.60400
C         11.27500        1.23800       24.26500
C         10.59800        2.44800       24.34100
C         11.14700        3.58100       23.75000
C         12.36500        3.50800       23.08900
C         13.03600        2.30200       23.02000
S         10.28200        5.16800       23.84200
O         11.15500        6.27200       23.43000
O          9.99400        5.50500       25.23700
N          8.86000        5.13800       22.89700
