16
./Mpro_complexes/Mpro-x2193_0_ligand.pdb
N          9.14000       -3.68500       24.76700
C         10.80700        2.68000       23.58600
O         10.22000        1.73600       21.24100
C          9.66500        0.16700       23.24000
N          8.90900       -6.30700       25.81900
O          8.37300        2.37200       22.73900
C          9.80700       -0.92400       22.39900
C          9.65700       -2.20100       22.91200
C          9.36900       -2.39900       24.26300
C          9.26700       -1.28700       25.09300
C          9.42000       -0.01000       24.59100
C          9.93400       -4.78800       24.21900
C          9.17300       -6.07900       24.38700
C          8.12200       -5.20300       26.40800
C          8.82500       -3.87700       26.19000
S          9.68100        1.80300       22.56800
