16
./Mpro_complexes/Mpro-x0678_0_ligand.pdb
O          9.41900        1.10200       21.00000
C          8.86500        0.31200       21.69600
C          9.40900       -0.15500       23.03300
C         10.92300       -0.08000       23.09000
C         11.56200       -1.04700       22.09600
C         12.81800       -1.71300       22.64700
C         13.61000       -0.85900       23.62900
C         12.77100       -0.15300       24.69000
C         11.28100       -0.40200       24.52700
N          7.61200       -0.25600       21.32600
C          7.00000        0.17100       20.10900
C          5.75600        0.77300       20.24900
C          5.14200        1.20800       19.08300
C          5.80500        1.02400       17.87700
N          7.00000        0.45400       17.81400
C          7.62600        0.02600       18.88700
