18
./Mpro_complexes/Mpro-x0426_0_ligand.pdb
C          1.44500        3.83100       25.19300
C          0.44500        4.54000       25.84800
C         -0.86100        4.07100       25.88300
C         -1.17700        2.87700       25.25300
C         -0.18600        2.16700       24.58900
C          1.12800        2.63400       24.55800
C          2.18600        1.82000       23.81500
O          2.05800        0.64000       23.76100
N          3.32300        2.47400       23.17500
C          4.33200        1.71700       22.43400
C          3.83700        1.64200       20.98900
C          4.83700        1.16500       19.93300
C          5.85100        0.24400       20.20100
C          6.69700       -0.12500       19.15400
N          6.55800        0.37400       17.93300
C          5.60300        1.23700       17.67700
C          4.72200        1.66200       18.65700
F          2.72700        4.32000       25.18300
