18
./Mpro_complexes/Mpro-x0354_0_ligand.pdb
C         13.21800       -1.02800       22.56400
N         12.42500       -1.29100       23.76500
O          7.96100       -2.29600       25.60700
C         11.71500       -0.09100       24.19800
N         10.06900       -1.47700       25.38000
O          7.45300       -0.45600       27.61500
C         11.01100       -0.36200       25.50500
C         10.67600       -2.67700       24.80000
C         11.44500       -2.35400       23.53700
C          8.79000       -1.40800       25.81000
C          8.37500       -0.16000       26.57800
C          7.02300        0.59500       28.38500
C          7.76600        1.76100       28.52700
C          7.28900        2.78600       29.32700
C          6.07900        2.68600       29.98600
C          5.57200        3.80300       30.85200
C          5.35300        1.52100       29.83200
C          5.80900        0.47600       29.04400
