
 OpenBabel07202414153D

 41 43  0  0  0  0  0  0  0  0999 V2000
    1.3151   -0.4728   -1.2765 C   0  0  0  0  0  0  0  0  0  0  0  0
    2.5595   -1.7461   -1.3078 S   0  0  0  0  0  0  0  0  0  0  0  0
    1.9060   -3.0336   -1.1922 O   0  0  0  0  0  0  0  0  0  0  0  0
    3.4530   -1.4451   -2.4139 O   0  0  0  0  0  0  0  0  0  0  0  0
    3.2723   -1.3785    0.1112 O   0  0  0  0  0  0  0  0  0  0  0  0
    4.5817   -1.7219    0.3421 C   0  0  0  0  0  0  0  0  0  0  0  0
    5.2814   -0.9128    1.2309 C   0  0  0  0  0  0  0  0  0  0  0  0
    6.6475   -1.1261    1.4458 C   0  0  0  0  0  0  0  0  0  0  0  0
    7.3456   -2.1624    0.7790 C   0  0  0  0  0  0  0  0  0  0  0  0
    8.7281   -2.4169    0.9345 C   0  0  0  0  0  0  0  0  0  0  0  0
    9.5475   -1.5223    1.6649 N   0  0  0  0  0  0  0  0  0  0  0  0
   10.5152   -1.9498    2.5576 C   0  0  0  0  0  0  0  0  0  0  0  0
   10.7234   -3.1233    2.8532 O   0  0  0  0  0  0  0  0  0  0  0  0
   11.3005   -0.8153    3.1927 C   0  0  0  0  0  0  0  0  0  0  0  0
   10.6182   -0.1605    4.3719 C   0  0  0  0  0  0  0  0  0  0  0  0
   10.2309   -0.9117    5.4902 C   0  0  0  0  0  0  0  0  0  0  0  0
    9.6713   -0.2906    6.6112 C   0  0  0  0  0  0  0  0  0  0  0  0
    9.4920    1.0922    6.6274 C   0  0  0  0  0  0  0  0  0  0  0  0
    9.8768    1.8473    5.5235 C   0  0  0  0  0  0  0  0  0  0  0  0
    9.6724    3.5557    5.5430 Cl  0  0  0  0  0  0  0  0  0  0  0  0
   10.4347    1.2320    4.3999 C   0  0  0  0  0  0  0  0  0  0  0  0
    9.2715   -3.5331    0.2948 C   0  0  0  0  0  0  0  0  0  0  0  0
    8.5692   -4.3761   -0.4953 N   0  0  0  0  0  0  0  0  0  0  0  0
    7.2560   -4.1039   -0.6436 C   0  0  0  0  0  0  0  0  0  0  0  0
    6.5957   -3.0284   -0.0448 C   0  0  0  0  0  0  0  0  0  0  0  0
    5.2222   -2.8084   -0.2509 C   0  0  0  0  0  0  0  0  0  0  0  0
    0.7217   -0.5637   -2.1872 H   0  0  0  0  0  0  0  0  0  0  0  0
    1.8110    0.4975   -1.2522 H   0  0  0  0  0  0  0  0  0  0  0  0
    0.6858   -0.6161   -0.3955 H   0  0  0  0  0  0  0  0  0  0  0  0
    4.7792   -0.1063    1.7585 H   0  0  0  0  0  0  0  0  0  0  0  0
    7.1518   -0.4836    2.1626 H   0  0  0  0  0  0  0  0  0  0  0  0
    9.2192   -0.5716    1.7715 H   0  0  0  0  0  0  0  0  0  0  0  0
   11.5218   -0.0750    2.4135 H   0  0  0  0  0  0  0  0  0  0  0  0
   12.2694   -1.2120    3.5182 H   0  0  0  0  0  0  0  0  0  0  0  0
   10.3810   -1.9937    5.5078 H   0  0  0  0  0  0  0  0  0  0  0  0
    9.3864   -0.8846    7.4761 H   0  0  0  0  0  0  0  0  0  0  0  0
    9.0679    1.5707    7.5056 H   0  0  0  0  0  0  0  0  0  0  0  0
   10.7482    1.8461    3.5589 H   0  0  0  0  0  0  0  0  0  0  0  0
   10.3320   -3.7630    0.3566 H   0  0  0  0  0  0  0  0  0  0  0  0
    6.7236   -4.8048   -1.2850 H   0  0  0  0  0  0  0  0  0  0  0  0
    4.6702   -3.4929   -0.8901 H   0  0  0  0  0  0  0  0  0  0  0  0
  1  2  1  0  0  0  0
  1 27  1  0  0  0  0
  1 28  1  0  0  0  0
  1 29  1  0  0  0  0
  2  3  2  0  0  0  0
  2  4  2  0  0  0  0
  2  5  1  0  0  0  0
  5  6  1  0  0  0  0
  6  7  1  0  0  0  0
  6 26  2  0  0  0  0
  7  8  2  0  0  0  0
  7 30  1  0  0  0  0
  8  9  1  0  0  0  0
  8 31  1  0  0  0  0
  9 10  1  0  0  0  0
  9 25  2  0  0  0  0
 10 11  1  0  0  0  0
 10 22  2  0  0  0  0
 11 12  1  0  0  0  0
 11 32  1  0  0  0  0
 12 13  2  0  0  0  0
 12 14  1  0  0  0  0
 14 15  1  0  0  0  0
 14 33  1  0  0  0  0
 14 34  1  0  0  0  0
 15 16  1  0  0  0  0
 15 21  2  0  0  0  0
 16 17  2  0  0  0  0
 16 35  1  0  0  0  0
 17 18  1  0  0  0  0
 17 36  1  0  0  0  0
 18 19  2  0  0  0  0
 18 37  1  0  0  0  0
 19 20  1  0  0  0  0
 19 21  1  0  0  0  0
 21 38  1  0  0  0  0
 22 23  1  0  0  0  0
 22 39  1  0  0  0  0
 23 24  2  0  0  0  0
 24 25  1  0  0  0  0
 24 40  1  0  0  0  0
 25 26  1  0  0  0  0
 26 41  1  0  0  0  0
M  END
$$$$
