
 OpenBabel07202414173D

 42 45  0  0  1  0  0  0  0  0999 V2000
   10.7298    1.8560    1.7195 Cl  0  0  0  0  0  0  0  0  0  0  0  0
    9.4761    2.2318    0.6010 C   0  0  0  0  0  0  0  0  0  0  0  0
    9.7740    2.3025   -0.7673 C   0  0  0  0  0  0  0  0  0  0  0  0
    8.7693    2.5952   -1.6843 C   0  0  0  0  0  0  0  0  0  0  0  0
    7.4897    2.8022   -1.2024 C   0  0  0  0  0  0  0  0  0  0  0  0
    7.1694    2.6943    0.1430 C   0  0  0  0  0  0  0  0  0  0  0  0
    8.1705    2.4237    1.0673 C   0  0  0  0  0  0  0  0  0  0  0  0
    5.6744    2.7316    0.2995 C   0  0  3  0  0  0  0  0  0  0  0  0
    5.1286    3.4714    1.5400 C   0  0  0  0  0  0  0  0  0  0  0  0
    5.8280    3.5611    2.5549 O   0  0  0  0  0  0  0  0  0  0  0  0
    3.7757    3.8414    1.5608 N   0  0  0  0  0  0  0  0  0  0  0  0
    2.8469    3.4709    0.5788 C   0  0  0  0  0  0  0  0  0  0  0  0
    2.2404    4.2838   -0.1143 O   0  0  0  0  0  0  0  0  0  0  0  0
    2.6183    2.0039    0.4306 C   0  0  0  0  0  0  0  0  0  0  0  0
    1.8755    1.5559   -0.5894 C   0  0  0  0  0  0  0  0  0  0  0  0
    3.2128    4.7090    2.5824 C   0  0  0  0  0  0  0  0  0  0  0  0
    1.9291    4.3688    3.0518 C   0  0  0  0  0  0  0  0  0  0  0  0
    1.1358    5.1340    3.8248 N   0  0  0  0  0  0  0  0  0  0  0  0
    1.6340    6.3367    4.1533 C   0  0  0  0  0  0  0  0  0  0  0  0
    2.9157    6.7782    3.8326 C   0  0  0  0  0  0  0  0  0  0  0  0
    3.3247    8.0498    4.2666 C   0  0  0  0  0  0  0  0  0  0  0  0
    4.6066    8.5162    3.9979 C   0  0  0  0  0  0  0  0  0  0  0  0
    5.4808    7.7129    3.2819 C   0  0  0  0  0  0  0  0  0  0  0  0
    5.0669    6.4612    2.8018 C   0  0  0  0  0  0  0  0  0  0  0  0
    3.7693    5.9407    3.0563 C   0  0  0  0  0  0  0  0  0  0  0  0
    5.3223    3.2821   -1.0884 C   0  0  0  0  0  0  0  0  0  0  0  0
    6.4164    3.0564   -2.0076 O   0  0  0  0  0  0  0  0  0  0  0  0
   10.7845    2.1097   -1.1194 H   0  0  0  0  0  0  0  0  0  0  0  0
    8.9749    2.6453   -2.7495 H   0  0  0  0  0  0  0  0  0  0  0  0
    7.9520    2.3376    2.1274 H   0  0  0  0  0  0  0  0  0  0  0  0
    5.3561    1.6842    0.3808 H   0  0  0  0  0  0  0  0  0  0  0  0
    3.0458    1.3291    1.1636 H   0  0  0  0  0  0  0  0  0  0  0  0
    1.4257    2.2372   -1.3176 H   0  0  0  0  0  0  0  0  0  0  0  0
    1.6745    0.4991   -0.7201 H   0  0  0  0  0  0  0  0  0  0  0  0
    1.4758    3.4095    2.8114 H   0  0  0  0  0  0  0  0  0  0  0  0
    0.9418    6.9649    4.7100 H   0  0  0  0  0  0  0  0  0  0  0  0
    2.6432    8.6896    4.8255 H   0  0  0  0  0  0  0  0  0  0  0  0
    4.9149    9.4948    4.3503 H   0  0  0  0  0  0  0  0  0  0  0  0
    6.4947    8.0582    3.0923 H   0  0  0  0  0  0  0  0  0  0  0  0
    5.8042    5.8930    2.2457 H   0  0  0  0  0  0  0  0  0  0  0  0
    5.0916    4.3529   -1.0817 H   0  0  0  0  0  0  0  0  0  0  0  0
    4.4626    2.7535   -1.5119 H   0  0  0  0  0  0  0  0  0  0  0  0
  1  2  1  0  0  0  0
  2  3  1  0  0  0  0
  2  7  2  0  0  0  0
  3  4  2  0  0  0  0
  3 28  1  0  0  0  0
  4  5  1  0  0  0  0
  4 29  1  0  0  0  0
  5  6  2  0  0  0  0
  5 27  1  0  0  0  0
  6  7  1  0  0  0  0
  6  8  1  0  0  0  0
  7 30  1  0  0  0  0
  8  9  1  0  0  0  0
  8 26  1  0  0  0  0
  8 31  1  0  0  0  0
  9 10  2  0  0  0  0
  9 11  1  0  0  0  0
 11 12  1  0  0  0  0
 11 16  1  0  0  0  0
 12 13  2  0  0  0  0
 12 14  1  0  0  0  0
 14 15  2  0  0  0  0
 14 32  1  0  0  0  0
 15 33  1  0  0  0  0
 15 34  1  0  0  0  0
 16 17  1  0  0  0  0
 16 25  2  0  0  0  0
 17 18  2  0  0  0  0
 17 35  1  0  0  0  0
 18 19  1  0  0  0  0
 19 20  2  0  0  0  0
 19 36  1  0  0  0  0
 20 21  1  0  0  0  0
 20 25  1  0  0  0  0
 21 22  2  0  0  0  0
 21 37  1  0  0  0  0
 22 23  1  0  0  0  0
 22 38  1  0  0  0  0
 23 24  2  0  0  0  0
 23 39  1  0  0  0  0
 24 25  1  0  0  0  0
 24 40  1  0  0  0  0
 26 27  1  0  0  0  0
 26 41  1  0  0  0  0
 26 42  1  0  0  0  0
M  END
$$$$
