
 OpenBabel07202414163D

 49 51  0  0  0  0  0  0  0  0999 V2000
   -3.1180   -1.8723    0.4540 C   0  0  0  0  0  0  0  0  0  0  0  0
   -2.2091   -0.6860    0.3341 C   0  0  0  0  0  0  0  0  0  0  0  0
   -2.7487    0.5895    0.4045 C   0  0  0  0  0  0  0  0  0  0  0  0
   -1.9260    1.7047    0.3036 C   0  0  0  0  0  0  0  0  0  0  0  0
   -0.5399    1.6058    0.1057 C   0  0  0  0  0  0  0  0  0  0  0  0
    0.0027    0.3148    0.0446 C   0  0  0  0  0  0  0  0  0  0  0  0
   -0.8254   -0.8207    0.1587 C   0  0  0  0  0  0  0  0  0  0  0  0
    1.8678    0.0315   -0.1865 Br  0  0  0  0  0  0  0  0  0  0  0  0
    0.2924    2.7645   -0.0371 N   0  0  0  0  0  0  0  0  0  0  0  0
   -0.1800    4.0516   -0.0001 C   0  0  0  0  0  0  0  0  0  0  0  0
   -1.3780    4.3225    0.1380 O   0  0  0  0  0  0  0  0  0  0  0  0
    0.7615    5.0511   -0.1503 N   0  0  0  0  0  0  0  0  0  0  0  0
    0.4135    6.4005   -0.0624 C   0  0  0  0  0  0  0  0  0  0  0  0
   -0.6286    6.8000    0.7010 C   0  0  0  0  0  0  0  0  0  0  0  0
   -1.0728    8.0936    0.8321 N   0  0  0  0  0  0  0  0  0  0  0  0
   -0.4921    9.1398    0.1209 C   0  0  0  0  0  0  0  0  0  0  0  0
   -0.8835   10.2978    0.1796 O   0  0  0  0  0  0  0  0  0  0  0  0
    0.6823    8.7881   -0.7254 C   0  0  0  0  0  0  0  0  0  0  0  0
    1.1436    7.4544   -0.7955 C   0  0  0  0  0  0  0  0  0  0  0  0
    2.2567    7.1885   -1.6069 C   0  0  0  0  0  0  0  0  0  0  0  0
    2.9086    8.2211   -2.2882 C   0  0  0  0  0  0  0  0  0  0  0  0
    2.4425    9.5304   -2.1994 C   0  0  0  0  0  0  0  0  0  0  0  0
    1.3155    9.8118   -1.4341 C   0  0  0  0  0  0  0  0  0  0  0  0
   -2.1314    8.3870    1.8128 C   0  0  0  0  0  0  0  0  0  0  0  0
   -3.5818    8.3676    1.2810 C   0  0  0  0  0  0  0  0  0  0  0  0
   -3.8328    9.3866    0.1686 C   0  0  0  0  0  0  0  0  0  0  0  0
   -3.9898    6.9785    0.7962 C   0  0  0  0  0  0  0  0  0  0  0  0
   -4.1590   -1.5582    0.5941 H   0  0  0  0  0  0  0  0  0  0  0  0
   -2.8384   -2.4778    1.3204 H   0  0  0  0  0  0  0  0  0  0  0  0
   -3.0765   -2.4781   -0.4549 H   0  0  0  0  0  0  0  0  0  0  0  0
   -3.8174    0.7464    0.5400 H   0  0  0  0  0  0  0  0  0  0  0  0
   -2.4515    2.6467    0.3886 H   0  0  0  0  0  0  0  0  0  0  0  0
   -0.3934   -1.8178    0.1089 H   0  0  0  0  0  0  0  0  0  0  0  0
    1.2721    2.6039   -0.2004 H   0  0  0  0  0  0  0  0  0  0  0  0
    1.6349    4.7983   -0.5858 H   0  0  0  0  0  0  0  0  0  0  0  0
   -1.1997    6.0824    1.2712 H   0  0  0  0  0  0  0  0  0  0  0  0
    2.6364    6.1812   -1.7387 H   0  0  0  0  0  0  0  0  0  0  0  0
    3.7800    7.9993   -2.8995 H   0  0  0  0  0  0  0  0  0  0  0  0
    2.9521   10.3306   -2.7274 H   0  0  0  0  0  0  0  0  0  0  0  0
    0.9356   10.8309   -1.3823 H   0  0  0  0  0  0  0  0  0  0  0  0
   -1.9185    9.3730    2.2461 H   0  0  0  0  0  0  0  0  0  0  0  0
   -2.0380    7.6736    2.6449 H   0  0  0  0  0  0  0  0  0  0  0  0
   -4.2465    8.6144    2.1255 H   0  0  0  0  0  0  0  0  0  0  0  0
   -3.2957    9.1053   -0.7443 H   0  0  0  0  0  0  0  0  0  0  0  0
   -3.5214   10.3979    0.4475 H   0  0  0  0  0  0  0  0  0  0  0  0
   -4.8997    9.4310   -0.0771 H   0  0  0  0  0  0  0  0  0  0  0  0
   -3.4189    6.6907   -0.0921 H   0  0  0  0  0  0  0  0  0  0  0  0
   -5.0513    6.9634    0.5296 H   0  0  0  0  0  0  0  0  0  0  0  0
   -3.8280    6.2249    1.5736 H   0  0  0  0  0  0  0  0  0  0  0  0
  1  2  1  0  0  0  0
  1 28  1  0  0  0  0
  1 29  1  0  0  0  0
  1 30  1  0  0  0  0
  2  3  1  0  0  0  0
  2  7  2  0  0  0  0
  3  4  2  0  0  0  0
  3 31  1  0  0  0  0
  4  5  1  0  0  0  0
  4 32  1  0  0  0  0
  5  6  2  0  0  0  0
  5  9  1  0  0  0  0
  6  7  1  0  0  0  0
  6  8  1  0  0  0  0
  7 33  1  0  0  0  0
  9 10  1  0  0  0  0
  9 34  1  0  0  0  0
 10 11  2  0  0  0  0
 10 12  1  0  0  0  0
 12 13  1  0  0  0  0
 12 35  1  0  0  0  0
 13 14  2  0  0  0  0
 13 19  1  0  0  0  0
 14 15  1  0  0  0  0
 14 36  1  0  0  0  0
 15 16  1  0  0  0  0
 15 24  1  0  0  0  0
 16 17  2  0  0  0  0
 16 18  1  0  0  0  0
 18 19  1  0  0  0  0
 18 23  2  0  0  0  0
 19 20  2  0  0  0  0
 20 21  1  0  0  0  0
 20 37  1  0  0  0  0
 21 22  2  0  0  0  0
 21 38  1  0  0  0  0
 22 23  1  0  0  0  0
 22 39  1  0  0  0  0
 23 40  1  0  0  0  0
 24 25  1  0  0  0  0
 24 41  1  0  0  0  0
 24 42  1  0  0  0  0
 25 26  1  0  0  0  0
 25 27  1  0  0  0  0
 25 43  1  0  0  0  0
 26 44  1  0  0  0  0
 26 45  1  0  0  0  0
 26 46  1  0  0  0  0
 27 47  1  0  0  0  0
 27 48  1  0  0  0  0
 27 49  1  0  0  0  0
M  END
$$$$
