
 OpenBabel07202414163D

 44 47  0  0  1  0  0  0  0  0999 V2000
   -4.9955   -2.9895    4.6994 C   0  0  0  0  0  0  0  0  0  0  0  0
   -4.6158   -2.1817    3.4924 C   0  0  0  0  0  0  0  0  0  0  0  0
   -4.3752   -2.7906    2.2606 C   0  0  0  0  0  0  0  0  0  0  0  0
   -3.9854   -2.0259    1.1540 C   0  0  0  0  0  0  0  0  0  0  0  0
   -3.8266   -0.6352    1.2531 C   0  0  0  0  0  0  0  0  0  0  0  0
   -3.2934    0.1468    0.0519 C   0  0  2  0  0  0  0  0  0  0  0  0
   -1.7818    0.0434    0.0312 C   0  0  0  0  0  0  0  0  0  0  0  0
   -1.0095    0.5231   -1.1758 C   0  0  0  0  0  0  0  0  0  0  0  0
   -1.0742   -0.9444   -0.8638 C   0  0  0  0  0  0  0  0  0  0  0  0
   -3.7197    1.6261    0.0144 C   0  0  0  0  0  0  0  0  0  0  0  0
   -3.1260    2.4978    0.6452 O   0  0  0  0  0  0  0  0  0  0  0  0
   -4.8291    1.8665   -0.7820 N   0  0  0  0  0  0  0  0  0  0  0  0
   -5.3414    3.1632   -1.0325 C   0  0  0  0  0  0  0  0  0  0  0  0
   -4.4938    4.2630   -1.1910 C   0  0  0  0  0  0  0  0  0  0  0  0
   -4.9095    5.5183   -1.4745 N   0  0  0  0  0  0  0  0  0  0  0  0
   -6.2435    5.6953   -1.5784 C   0  0  0  0  0  0  0  0  0  0  0  0
   -7.1949    4.6834   -1.4251 C   0  0  0  0  0  0  0  0  0  0  0  0
   -8.5721    4.9538   -1.5111 C   0  0  0  0  0  0  0  0  0  0  0  0
   -9.5085    3.9419   -1.3128 C   0  0  0  0  0  0  0  0  0  0  0  0
   -9.0810    2.6501   -1.0335 C   0  0  0  0  0  0  0  0  0  0  0  0
   -7.7154    2.3679   -0.9576 C   0  0  0  0  0  0  0  0  0  0  0  0
   -6.7377    3.3727   -1.1554 C   0  0  0  0  0  0  0  0  0  0  0  0
   -4.0855   -0.0309    2.4933 C   0  0  0  0  0  0  0  0  0  0  0  0
   -4.4800   -0.7949    3.5970 C   0  0  0  0  0  0  0  0  0  0  0  0
   -5.0004   -4.0620    4.4806 H   0  0  0  0  0  0  0  0  0  0  0  0
   -5.9967   -2.7101    5.0455 H   0  0  0  0  0  0  0  0  0  0  0  0
   -4.2773   -2.8199    5.5083 H   0  0  0  0  0  0  0  0  0  0  0  0
   -4.4657   -3.8699    2.1530 H   0  0  0  0  0  0  0  0  0  0  0  0
   -3.7700   -2.5369    0.2183 H   0  0  0  0  0  0  0  0  0  0  0  0
   -3.6949   -0.3244   -0.8572 H   0  0  0  0  0  0  0  0  0  0  0  0
   -1.3418    0.2751    0.9976 H   0  0  0  0  0  0  0  0  0  0  0  0
   -0.0797    1.0510   -0.9908 H   0  0  0  0  0  0  0  0  0  0  0  0
   -1.5562    0.8901   -2.0371 H   0  0  0  0  0  0  0  0  0  0  0  0
   -0.1807   -1.4204   -0.4762 H   0  0  0  0  0  0  0  0  0  0  0  0
   -1.6590   -1.5717   -1.5259 H   0  0  0  0  0  0  0  0  0  0  0  0
   -5.4267    1.0775   -0.9832 H   0  0  0  0  0  0  0  0  0  0  0  0
   -3.4129    4.1614   -1.1313 H   0  0  0  0  0  0  0  0  0  0  0  0
   -6.5402    6.7217   -1.7814 H   0  0  0  0  0  0  0  0  0  0  0  0
   -8.9235    5.9640   -1.7100 H   0  0  0  0  0  0  0  0  0  0  0  0
  -10.5712    4.1646   -1.3616 H   0  0  0  0  0  0  0  0  0  0  0  0
   -9.8071    1.8612   -0.8555 H   0  0  0  0  0  0  0  0  0  0  0  0
   -7.4338    1.3512   -0.7007 H   0  0  0  0  0  0  0  0  0  0  0  0
   -3.9508    1.0417    2.6332 H   0  0  0  0  0  0  0  0  0  0  0  0
   -4.6570   -0.2963    4.5468 H   0  0  0  0  0  0  0  0  0  0  0  0
  1  2  1  0  0  0  0
  1 25  1  0  0  0  0
  1 26  1  0  0  0  0
  1 27  1  0  0  0  0
  2  3  1  0  0  0  0
  2 24  2  0  0  0  0
  3  4  2  0  0  0  0
  3 28  1  0  0  0  0
  4  5  1  0  0  0  0
  4 29  1  0  0  0  0
  5 23  2  0  0  0  0
  6 10  1  0  0  0  0
  6  7  1  0  0  0  0
  6  5  1  0  0  0  0
  6 30  1  6  0  0  0
  7  8  1  0  0  0  0
  7  9  1  0  0  0  0
  7 31  1  0  0  0  0
  8  9  1  0  0  0  0
  8 32  1  0  0  0  0
  8 33  1  0  0  0  0
  9 34  1  0  0  0  0
  9 35  1  0  0  0  0
 10 11  2  0  0  0  0
 10 12  1  0  0  0  0
 12 13  1  0  0  0  0
 12 36  1  0  0  0  0
 13 14  1  0  0  0  0
 13 22  2  0  0  0  0
 14 15  2  0  0  0  0
 14 37  1  0  0  0  0
 15 16  1  0  0  0  0
 16 17  2  0  0  0  0
 16 38  1  0  0  0  0
 17 18  1  0  0  0  0
 17 22  1  0  0  0  0
 18 19  2  0  0  0  0
 18 39  1  0  0  0  0
 19 20  1  0  0  0  0
 19 40  1  0  0  0  0
 20 21  2  0  0  0  0
 20 41  1  0  0  0  0
 21 22  1  0  0  0  0
 21 42  1  0  0  0  0
 23 24  1  0  0  0  0
 23 43  1  0  0  0  0
 24 44  1  0  0  0  0
M  END
$$$$
