
 OpenBabel07202414173D

 34 35  0  0  0  0  0  0  0  0999 V2000
    0.8826   -0.1835    0.7099 Cl  0  0  0  0  0  0  0  0  0  0  0  0
    2.6537   -0.2526    0.8181 C   0  0  0  0  0  0  0  0  0  0  0  0
    3.2197   -1.5167    0.1830 C   0  0  0  0  0  0  0  0  0  0  0  0
    2.5028   -2.4144   -0.2604 O   0  0  0  0  0  0  0  0  0  0  0  0
    4.6142   -1.6109    0.1164 N   0  0  0  0  0  0  0  0  0  0  0  0
    5.5423   -0.6748    0.7710 C   0  0  0  0  0  0  0  0  0  0  0  0
    6.8819   -0.5557    0.0132 C   0  0  0  0  0  0  0  0  0  0  0  0
    7.4965   -1.8961   -0.2646 N   0  0  0  0  0  0  0  0  0  0  0  0
    8.2641   -2.6939    1.0413 S   0  0  0  0  0  0  0  0  0  0  0  0
    7.6143   -2.2914    2.2686 O   0  0  0  0  0  0  0  0  0  0  0  0
    8.3179   -4.1037    0.7343 O   0  0  0  0  0  0  0  0  0  0  0  0
    9.9306   -2.0386    1.0264 C   0  0  0  0  0  0  0  0  0  0  0  0
   10.2789   -0.9101    1.7934 C   0  0  0  0  0  0  0  0  0  0  0  0
    9.1846    0.0678    2.7104 Cl  0  0  0  0  0  0  0  0  0  0  0  0
   11.6114   -0.4664    1.8482 C   0  0  0  0  0  0  0  0  0  0  0  0
   12.6091   -1.1519    1.1744 C   0  0  0  0  0  0  0  0  0  0  0  0
   14.3983   -0.5554    1.2759 Br  0  0  0  0  0  0  0  0  0  0  0  0
   12.2899   -2.2712    0.4244 C   0  0  0  0  0  0  0  0  0  0  0  0
   10.9583   -2.7109    0.3336 C   0  0  0  0  0  0  0  0  0  0  0  0
   10.7433   -4.0670   -0.7206 Cl  0  0  0  0  0  0  0  0  0  0  0  0
    6.5166   -2.7331   -1.0383 C   0  0  0  0  0  0  0  0  0  0  0  0
    5.1995   -2.9053   -0.2710 C   0  0  0  0  0  0  0  0  0  0  0  0
    2.9227   -0.2256    1.8786 H   0  0  0  0  0  0  0  0  0  0  0  0
    3.0354    0.6319    0.3037 H   0  0  0  0  0  0  0  0  0  0  0  0
    5.6763   -1.0322    1.7954 H   0  0  0  0  0  0  0  0  0  0  0  0
    5.0971    0.3193    0.8490 H   0  0  0  0  0  0  0  0  0  0  0  0
    7.5778    0.1015    0.5304 H   0  0  0  0  0  0  0  0  0  0  0  0
    6.6901   -0.0754   -0.9568 H   0  0  0  0  0  0  0  0  0  0  0  0
   11.8664    0.4181    2.4312 H   0  0  0  0  0  0  0  0  0  0  0  0
   13.0794   -2.8103   -0.0985 H   0  0  0  0  0  0  0  0  0  0  0  0
    6.9554   -3.6989   -1.3064 H   0  0  0  0  0  0  0  0  0  0  0  0
    6.3177   -2.2201   -1.9897 H   0  0  0  0  0  0  0  0  0  0  0  0
    5.3610   -3.4733    0.6527 H   0  0  0  0  0  0  0  0  0  0  0  0
    4.4975   -3.4775   -0.8866 H   0  0  0  0  0  0  0  0  0  0  0  0
  1  2  1  0  0  0  0
  2  3  1  0  0  0  0
  2 23  1  0  0  0  0
  2 24  1  0  0  0  0
  3  4  2  0  0  0  0
  3  5  1  0  0  0  0
  5  6  1  0  0  0  0
  5 22  1  0  0  0  0
  6  7  1  0  0  0  0
  6 25  1  0  0  0  0
  6 26  1  0  0  0  0
  7  8  1  0  0  0  0
  7 27  1  0  0  0  0
  7 28  1  0  0  0  0
  8  9  1  0  0  0  0
  8 21  1  0  0  0  0
  9 10  2  0  0  0  0
  9 11  2  0  0  0  0
  9 12  1  0  0  0  0
 12 13  1  0  0  0  0
 12 19  2  0  0  0  0
 13 14  1  0  0  0  0
 13 15  2  0  0  0  0
 15 16  1  0  0  0  0
 15 29  1  0  0  0  0
 16 17  1  0  0  0  0
 16 18  2  0  0  0  0
 18 19  1  0  0  0  0
 18 30  1  0  0  0  0
 19 20  1  0  0  0  0
 21 22  1  0  0  0  0
 21 31  1  0  0  0  0
 21 32  1  0  0  0  0
 22 33  1  0  0  0  0
 22 34  1  0  0  0  0
M  END
$$$$
