
 OpenBabel07202414173D

 45 48  0  0  0  0  0  0  0  0999 V2000
    6.8215   -0.3548   -9.0229 Cl  0  0  0  0  0  0  0  0  0  0  0  0
    8.3529   -0.1600   -8.1517 C   0  0  0  0  0  0  0  0  0  0  0  0
    8.3763   -1.1026   -6.9603 C   0  0  0  0  0  0  0  0  0  0  0  0
    8.8762   -2.2259   -7.0921 O   0  0  0  0  0  0  0  0  0  0  0  0
    7.8276   -0.6790   -5.7398 N   0  0  0  0  0  0  0  0  0  0  0  0
    8.0927   -1.5516   -4.5959 C   0  0  0  0  0  0  0  0  0  0  0  0
    7.1659   -1.3266   -3.4063 C   0  0  0  0  0  0  0  0  0  0  0  0
    6.9829    0.1468   -3.0145 C   0  0  0  0  0  0  0  0  0  0  0  0
    8.1563    0.7174   -2.2219 C   0  0  0  0  0  0  0  0  0  0  0  0
    9.3642    0.6076   -2.8217 N   0  0  0  0  0  0  0  0  0  0  0  0
   10.4466    1.0390   -2.1469 C   0  0  0  0  0  0  0  0  0  0  0  0
   11.7679    0.8521   -2.7582 C   0  0  0  0  0  0  0  0  0  0  0  0
   11.9437    0.2854   -4.0293 C   0  0  0  0  0  0  0  0  0  0  0  0
   13.2216    0.0977   -4.5565 C   0  0  0  0  0  0  0  0  0  0  0  0
   14.3083    0.4895   -3.7964 C   0  0  0  0  0  0  0  0  0  0  0  0
   14.2001    1.0482   -2.5742 N   0  0  0  0  0  0  0  0  0  0  0  0
   12.9412    1.2119   -2.0898 C   0  0  0  0  0  0  0  0  0  0  0  0
   10.4022    1.5985   -0.9315 N   0  0  0  0  0  0  0  0  0  0  0  0
    9.2130    1.7256   -0.3482 C   0  0  0  0  0  0  0  0  0  0  0  0
    9.1938    2.2994    0.9171 C   0  0  0  0  0  0  0  0  0  0  0  0
    8.0093    2.4752    1.6288 C   0  0  0  0  0  0  0  0  0  0  0  0
    6.8106    2.0719    1.0620 C   0  0  0  0  0  0  0  0  0  0  0  0
    6.8067    1.4926   -0.2100 C   0  0  0  0  0  0  0  0  0  0  0  0
    8.0118    1.3017   -0.9407 C   0  0  0  0  0  0  0  0  0  0  0  0
    6.6302    0.9599   -4.2655 C   0  0  0  0  0  0  0  0  0  0  0  0
    7.5650    0.7303   -5.4508 C   0  0  0  0  0  0  0  0  0  0  0  0
    8.4900    0.8862   -7.8750 H   0  0  0  0  0  0  0  0  0  0  0  0
    9.1725   -0.4242   -8.8282 H   0  0  0  0  0  0  0  0  0  0  0  0
    9.1418   -1.4217   -4.3143 H   0  0  0  0  0  0  0  0  0  0  0  0
    7.9922   -2.5971   -4.9123 H   0  0  0  0  0  0  0  0  0  0  0  0
    7.5137   -1.9176   -2.5506 H   0  0  0  0  0  0  0  0  0  0  0  0
    6.1785   -1.7248   -3.6780 H   0  0  0  0  0  0  0  0  0  0  0  0
    6.0965    0.1662   -2.3737 H   0  0  0  0  0  0  0  0  0  0  0  0
   11.0826   -0.0241   -4.6162 H   0  0  0  0  0  0  0  0  0  0  0  0
   13.3614   -0.3510   -5.5328 H   0  0  0  0  0  0  0  0  0  0  0  0
   15.3245    0.3583   -4.1577 H   0  0  0  0  0  0  0  0  0  0  0  0
   12.9076    1.6570   -1.0969 H   0  0  0  0  0  0  0  0  0  0  0  0
   10.1331    2.6160    1.3663 H   0  0  0  0  0  0  0  0  0  0  0  0
    8.0313    2.9237    2.6187 H   0  0  0  0  0  0  0  0  0  0  0  0
    5.8806    2.2052    1.6088 H   0  0  0  0  0  0  0  0  0  0  0  0
    5.8452    1.1936   -0.6154 H   0  0  0  0  0  0  0  0  0  0  0  0
    6.5788    2.0311   -4.0367 H   0  0  0  0  0  0  0  0  0  0  0  0
    5.6201    0.6623   -4.5811 H   0  0  0  0  0  0  0  0  0  0  0  0
    8.5304    1.2250   -5.2985 H   0  0  0  0  0  0  0  0  0  0  0  0
    7.1016    1.1952   -6.3265 H   0  0  0  0  0  0  0  0  0  0  0  0
  1  2  1  0  0  0  0
  2  3  1  0  0  0  0
  2 27  1  0  0  0  0
  2 28  1  0  0  0  0
  3  4  2  0  0  0  0
  3  5  1  0  0  0  0
  5  6  1  0  0  0  0
  5 26  1  0  0  0  0
  6  7  1  0  0  0  0
  6 29  1  0  0  0  0
  6 30  1  0  0  0  0
  7  8  1  0  0  0  0
  7 31  1  0  0  0  0
  7 32  1  0  0  0  0
  8  9  1  0  0  0  0
  8 25  1  0  0  0  0
  8 33  1  0  0  0  0
  9 10  1  0  0  0  0
  9 24  2  0  0  0  0
 10 11  2  0  0  0  0
 11 12  1  0  0  0  0
 11 18  1  0  0  0  0
 12 13  1  0  0  0  0
 12 17  2  0  0  0  0
 13 14  2  0  0  0  0
 13 34  1  0  0  0  0
 14 15  1  0  0  0  0
 14 35  1  0  0  0  0
 15 16  2  0  0  0  0
 15 36  1  0  0  0  0
 16 17  1  0  0  0  0
 17 37  1  0  0  0  0
 18 19  2  0  0  0  0
 19 20  1  0  0  0  0
 19 24  1  0  0  0  0
 20 21  2  0  0  0  0
 20 38  1  0  0  0  0
 21 22  1  0  0  0  0
 21 39  1  0  0  0  0
 22 23  2  0  0  0  0
 22 40  1  0  0  0  0
 23 24  1  0  0  0  0
 23 41  1  0  0  0  0
 25 26  1  0  0  0  0
 25 42  1  0  0  0  0
 25 43  1  0  0  0  0
 26 44  1  0  0  0  0
 26 45  1  0  0  0  0
M  END
$$$$
