
 OpenBabel07202414153D

 51 54  0  0  0  0  0  0  0  0999 V2000
    7.0978    2.8861    2.0488 C   0  0  0  0  0  0  0  0  0  0  0  0
    6.7366    1.9486    1.0373 O   0  0  0  0  0  0  0  0  0  0  0  0
    7.1672    0.6600    1.2083 C   0  0  0  0  0  0  0  0  0  0  0  0
    8.1841    0.2631    2.0736 C   0  0  0  0  0  0  0  0  0  0  0  0
    8.5495   -1.0811    2.1387 C   0  0  0  0  0  0  0  0  0  0  0  0
    7.8990   -2.0303    1.3498 C   0  0  0  0  0  0  0  0  0  0  0  0
    6.8674   -1.6612    0.4779 C   0  0  0  0  0  0  0  0  0  0  0  0
    6.5200   -0.3004    0.4114 C   0  0  0  0  0  0  0  0  0  0  0  0
    6.0891   -2.7258   -0.2772 C   0  0  0  0  0  0  0  0  0  0  0  0
    6.9536   -3.6443   -1.0315 N   0  0  0  0  0  0  0  0  0  0  0  0
    7.4373   -3.0831   -2.3022 C   0  0  0  0  0  0  0  0  0  0  0  0
    6.4204   -3.0418   -3.4671 C   0  0  0  0  0  0  0  0  0  0  0  0
    5.6708   -4.2796   -3.6504 N   0  0  0  0  0  0  0  0  0  0  0  0
    5.2768   -4.9737   -2.4157 C   0  0  0  0  0  0  0  0  0  0  0  0
    6.3252   -4.9485   -1.2988 C   0  0  0  0  0  0  0  0  0  0  0  0
    4.9575   -4.6381   -4.7790 C   0  0  0  0  0  0  0  0  0  0  0  0
    4.3729   -5.7312   -4.7975 O   0  0  0  0  0  0  0  0  0  0  0  0
    4.7753   -3.7182   -5.9759 C   0  0  0  0  0  0  0  0  0  0  0  0
    3.5467   -3.9830   -6.4785 C   0  0  0  0  0  0  0  0  0  0  0  0
    3.5073   -4.8203   -7.7204 C   0  0  0  0  0  0  0  0  0  0  0  0
    2.4940   -5.4421   -8.0232 O   0  0  0  0  0  0  0  0  0  0  0  0
    4.6453   -4.8838   -8.4759 N   0  0  0  0  0  0  0  0  0  0  0  0
    5.7553   -4.0805   -8.2139 C   0  0  0  0  0  0  0  0  0  0  0  0
    5.8152   -3.4077   -6.9844 C   0  0  0  0  0  0  0  0  0  0  0  0
    6.7384   -2.3632   -6.8662 C   0  0  0  0  0  0  0  0  0  0  0  0
    7.6530   -2.0941   -7.8935 C   0  0  0  0  0  0  0  0  0  0  0  0
    7.6428   -2.8549   -9.0615 C   0  0  0  0  0  0  0  0  0  0  0  0
    6.6891   -3.8557   -9.2265 C   0  0  0  0  0  0  0  0  0  0  0  0
    6.7176    3.8695    1.7537 H   0  0  0  0  0  0  0  0  0  0  0  0
    8.1834    2.9829    2.1523 H   0  0  0  0  0  0  0  0  0  0  0  0
    6.6341    2.6188    3.0045 H   0  0  0  0  0  0  0  0  0  0  0  0
    8.7160    0.9688    2.7039 H   0  0  0  0  0  0  0  0  0  0  0  0
    9.3513   -1.3862    2.8083 H   0  0  0  0  0  0  0  0  0  0  0  0
    8.2008   -3.0753    1.4269 H   0  0  0  0  0  0  0  0  0  0  0  0
    5.7240    0.0257   -0.2548 H   0  0  0  0  0  0  0  0  0  0  0  0
    5.3193   -2.2745   -0.9139 H   0  0  0  0  0  0  0  0  0  0  0  0
    5.5514   -3.2851    0.5020 H   0  0  0  0  0  0  0  0  0  0  0  0
    8.2812   -3.7096   -2.6239 H   0  0  0  0  0  0  0  0  0  0  0  0
    7.8642   -2.0854   -2.1534 H   0  0  0  0  0  0  0  0  0  0  0  0
    6.9981   -2.8706   -4.3700 H   0  0  0  0  0  0  0  0  0  0  0  0
    5.7021   -2.2251   -3.3442 H   0  0  0  0  0  0  0  0  0  0  0  0
    5.0365   -6.0229   -2.6318 H   0  0  0  0  0  0  0  0  0  0  0  0
    4.3473   -4.5020   -2.0754 H   0  0  0  0  0  0  0  0  0  0  0  0
    7.1262   -5.6490   -1.5682 H   0  0  0  0  0  0  0  0  0  0  0  0
    5.8863   -5.3594   -0.3780 H   0  0  0  0  0  0  0  0  0  0  0  0
    2.7036   -4.2392   -5.8395 H   0  0  0  0  0  0  0  0  0  0  0  0
    4.5836   -5.4303   -9.3236 H   0  0  0  0  0  0  0  0  0  0  0  0
    6.7298   -1.6975   -6.0094 H   0  0  0  0  0  0  0  0  0  0  0  0
    8.3562   -1.2697   -7.7934 H   0  0  0  0  0  0  0  0  0  0  0  0
    8.3395   -2.6295   -9.8655 H   0  0  0  0  0  0  0  0  0  0  0  0
    6.6323   -4.3920  -10.1692 H   0  0  0  0  0  0  0  0  0  0  0  0
  1  2  1  0  0  0  0
  1 29  1  0  0  0  0
  1 30  1  0  0  0  0
  1 31  1  0  0  0  0
  2  3  1  0  0  0  0
  3  4  1  0  0  0  0
  3  8  2  0  0  0  0
  4  5  2  0  0  0  0
  4 32  1  0  0  0  0
  5  6  1  0  0  0  0
  5 33  1  0  0  0  0
  6  7  2  0  0  0  0
  6 34  1  0  0  0  0
  7  8  1  0  0  0  0
  7  9  1  0  0  0  0
  8 35  1  0  0  0  0
  9 10  1  0  0  0  0
  9 36  1  0  0  0  0
  9 37  1  0  0  0  0
 10 11  1  0  0  0  0
 10 15  1  0  0  0  0
 11 12  1  0  0  0  0
 11 38  1  0  0  0  0
 11 39  1  0  0  0  0
 12 13  1  0  0  0  0
 12 40  1  0  0  0  0
 12 41  1  0  0  0  0
 13 14  1  0  0  0  0
 13 16  1  0  0  0  0
 14 15  1  0  0  0  0
 14 42  1  0  0  0  0
 14 43  1  0  0  0  0
 15 44  1  0  0  0  0
 15 45  1  0  0  0  0
 16 17  2  0  0  0  0
 16 18  1  0  0  0  0
 18 19  2  0  0  0  0
 18 24  1  0  0  0  0
 19 20  1  0  0  0  0
 19 46  1  0  0  0  0
 20 21  2  0  0  0  0
 20 22  1  0  0  0  0
 22 23  1  0  0  0  0
 22 47  1  0  0  0  0
 23 24  1  0  0  0  0
 23 28  2  0  0  0  0
 24 25  2  0  0  0  0
 25 26  1  0  0  0  0
 25 48  1  0  0  0  0
 26 27  2  0  0  0  0
 26 49  1  0  0  0  0
 27 28  1  0  0  0  0
 27 50  1  0  0  0  0
 28 51  1  0  0  0  0
M  END
$$$$
