
 OpenBabel07202414153D

 41 44  0  0  1  0  0  0  0  0999 V2000
    8.6254    4.5846   -1.3930 C   0  0  0  0  0  0  0  0  0  0  0  0
    7.7009    3.5326   -1.1517 O   0  0  0  0  0  0  0  0  0  0  0  0
    7.1634    3.4400    0.1126 C   0  0  0  0  0  0  0  0  0  0  0  0
    7.4807    4.3250    1.1946 C   0  0  0  0  0  0  0  0  0  0  0  0
    6.9187    4.2316    2.4904 C   0  0  0  0  0  0  0  0  0  0  0  0
    6.0180    3.1737    2.5799 C   0  0  0  0  0  0  0  0  0  0  0  0
    5.6720    2.2535    1.5184 C   0  0  0  0  0  0  0  0  0  0  0  0
    6.2498    2.3705    0.2444 C   0  0  0  0  0  0  0  0  0  0  0  0
    4.7750    1.3636    1.9716 N   0  0  0  0  0  0  0  0  0  0  0  0
    4.5675    1.7151    3.2535 N   0  0  0  0  0  0  0  0  0  0  0  0
    5.2877    2.8062    3.6818 C   0  0  0  0  0  0  0  0  0  0  0  0
    5.2073    3.3255    4.9675 N   0  0  0  0  0  0  0  0  0  0  0  0
    4.3839    2.7587    5.9246 C   0  0  0  0  0  0  0  0  0  0  0  0
    3.6504    1.7915    5.6889 O   0  0  0  0  0  0  0  0  0  0  0  0
    4.3875    3.3797    7.3284 C   0  0  3  0  0  0  0  0  0  0  0  0
    2.9847    3.8870    7.6729 C   0  0  0  0  0  0  0  0  0  0  0  0
    2.7744    5.2467    7.0278 C   0  0  0  0  0  0  0  0  0  0  0  0
    3.6913    6.2262    7.5209 O   0  0  0  0  0  0  0  0  0  0  0  0
    4.9874    5.8138    7.6561 C   0  0  0  0  0  0  0  0  0  0  0  0
    5.3946    4.4766    7.5780 C   0  0  0  0  0  0  0  0  0  0  0  0
    6.7519    4.1642    7.7637 C   0  0  0  0  0  0  0  0  0  0  0  0
    7.6763    5.1770    8.0202 C   0  0  0  0  0  0  0  0  0  0  0  0
    7.2631    6.5033    8.1082 C   0  0  0  0  0  0  0  0  0  0  0  0
    5.9157    6.8192    7.9314 C   0  0  0  0  0  0  0  0  0  0  0  0
    9.3369    4.7822    8.2270 Cl  0  0  0  0  0  0  0  0  0  0  0  0
    8.9320    4.5286   -2.4419 H   0  0  0  0  0  0  0  0  0  0  0  0
    9.5227    4.4660   -0.7769 H   0  0  0  0  0  0  0  0  0  0  0  0
    8.1611    5.5636   -1.2359 H   0  0  0  0  0  0  0  0  0  0  0  0
    8.1947    5.1311    1.0398 H   0  0  0  0  0  0  0  0  0  0  0  0
    7.1770    4.9139    3.2875 H   0  0  0  0  0  0  0  0  0  0  0  0
    6.0079    1.6982   -0.5669 H   0  0  0  0  0  0  0  0  0  0  0  0
    3.9112    1.1784    3.8162 H   0  0  0  0  0  0  0  0  0  0  0  0
    5.7749    4.1369    5.1823 H   0  0  0  0  0  0  0  0  0  0  0  0
    4.6192    2.5528    8.0147 H   0  0  0  0  0  0  0  0  0  0  0  0
    2.8977    3.9909    8.7627 H   0  0  0  0  0  0  0  0  0  0  0  0
    2.2068    3.1881    7.3466 H   0  0  0  0  0  0  0  0  0  0  0  0
    1.7656    5.6067    7.2575 H   0  0  0  0  0  0  0  0  0  0  0  0
    2.8584    5.2001    5.9356 H   0  0  0  0  0  0  0  0  0  0  0  0
    7.0876    3.1296    7.7189 H   0  0  0  0  0  0  0  0  0  0  0  0
    7.9786    7.2933    8.3208 H   0  0  0  0  0  0  0  0  0  0  0  0
    5.5855    7.8522    8.0142 H   0  0  0  0  0  0  0  0  0  0  0  0
  1  2  1  0  0  0  0
  1 26  1  0  0  0  0
  1 27  1  0  0  0  0
  1 28  1  0  0  0  0
  2  3  1  0  0  0  0
  3  4  1  0  0  0  0
  3  8  2  0  0  0  0
  4  5  2  0  0  0  0
  4 29  1  0  0  0  0
  5  6  1  0  0  0  0
  5 30  1  0  0  0  0
  6  7  1  0  0  0  0
  6 11  2  0  0  0  0
  7  8  1  0  0  0  0
  7  9  2  0  0  0  0
  8 31  1  0  0  0  0
  9 10  1  0  0  0  0
 10 11  1  0  0  0  0
 10 32  1  0  0  0  0
 11 12  1  0  0  0  0
 12 13  1  0  0  0  0
 12 33  1  0  0  0  0
 13 14  2  0  0  0  0
 13 15  1  0  0  0  0
 15 16  1  0  0  0  0
 15 20  1  0  0  0  0
 15 34  1  0  0  0  0
 16 17  1  0  0  0  0
 16 35  1  0  0  0  0
 16 36  1  0  0  0  0
 17 18  1  0  0  0  0
 17 37  1  0  0  0  0
 17 38  1  0  0  0  0
 18 19  1  0  0  0  0
 19 20  1  0  0  0  0
 19 24  2  0  0  0  0
 20 21  2  0  0  0  0
 21 22  1  0  0  0  0
 21 39  1  0  0  0  0
 22 23  2  0  0  0  0
 22 25  1  0  0  0  0
 23 24  1  0  0  0  0
 23 40  1  0  0  0  0
 24 41  1  0  0  0  0
M  END
$$$$
