
 OpenBabel07202414163D

 49 52  0  0  0  0  0  0  0  0999 V2000
   -2.1292   -0.2286    0.0628 Cl  0  0  0  0  0  0  0  0  0  0  0  0
   -0.4102   -0.0974    0.0478 C   0  0  0  0  0  0  0  0  0  0  0  0
    0.2038    1.1488    0.0568 C   0  0  0  0  0  0  0  0  0  0  0  0
    1.6081    1.2470    0.0364 C   0  0  0  0  0  0  0  0  0  0  0  0
    2.2960    2.5972   -0.0660 C   0  0  0  0  0  0  0  0  0  0  0  0
    3.2754    2.9014    1.0385 C   0  0  0  0  0  0  0  0  0  0  0  0
    4.4551    3.1857    0.7987 O   0  0  0  0  0  0  0  0  0  0  0  0
    2.7525    2.8916    2.3229 N   0  0  0  0  0  0  0  0  0  0  0  0
    3.5916    3.1734    3.4317 C   0  0  0  0  0  0  0  0  0  0  0  0
    4.2797    4.3901    3.5042 C   0  0  0  0  0  0  0  0  0  0  0  0
    5.0515    4.7635    4.5492 N   0  0  0  0  0  0  0  0  0  0  0  0
    5.1523    3.8752    5.5625 C   0  0  0  0  0  0  0  0  0  0  0  0
    4.5364    2.6182    5.5894 C   0  0  0  0  0  0  0  0  0  0  0  0
    4.7016    1.7361    6.6750 C   0  0  0  0  0  0  0  0  0  0  0  0
    4.1021    0.4770    6.6663 C   0  0  0  0  0  0  0  0  0  0  0  0
    3.3456    0.0813    5.5712 C   0  0  0  0  0  0  0  0  0  0  0  0
    3.1689    0.9510    4.4936 C   0  0  0  0  0  0  0  0  0  0  0  0
    3.7380    2.2471    4.4891 C   0  0  0  0  0  0  0  0  0  0  0  0
    2.3612    0.0490    0.0473 C   0  0  0  0  0  0  0  0  0  0  0  0
    1.7459   -1.2174    0.0296 C   0  0  0  0  0  0  0  0  0  0  0  0
    2.5257   -2.3819    0.1349 N   0  0  0  0  0  0  0  0  0  0  0  0
    1.9811   -3.6260   -0.4503 C   0  0  0  0  0  0  0  0  0  0  0  0
    3.0706   -4.6152   -0.8290 C   0  0  0  0  0  0  0  0  0  0  0  0
    2.7446   -5.8453   -1.4342 C   0  0  0  0  0  0  0  0  0  0  0  0
    0.9485   -6.3441   -1.8192 Br  0  0  0  0  0  0  0  0  0  0  0  0
    3.7410   -6.7666   -1.7829 C   0  0  0  0  0  0  0  0  0  0  0  0
    5.0803   -6.4808   -1.5328 C   0  0  0  0  0  0  0  0  0  0  0  0
    5.4261   -5.2703   -0.9438 C   0  0  0  0  0  0  0  0  0  0  0  0
    4.4343   -4.3448   -0.6032 C   0  0  0  0  0  0  0  0  0  0  0  0
    0.3495   -1.2712    0.0414 C   0  0  0  0  0  0  0  0  0  0  0  0
   -0.4279    2.0334    0.0864 H   0  0  0  0  0  0  0  0  0  0  0  0
    1.5529    3.4046   -0.0832 H   0  0  0  0  0  0  0  0  0  0  0  0
    2.8331    2.6504   -1.0197 H   0  0  0  0  0  0  0  0  0  0  0  0
    2.0286    2.1977    2.4552 H   0  0  0  0  0  0  0  0  0  0  0  0
    4.1935    5.1364    2.7189 H   0  0  0  0  0  0  0  0  0  0  0  0
    5.7631    4.2184    6.3919 H   0  0  0  0  0  0  0  0  0  0  0  0
    5.3011    2.0257    7.5342 H   0  0  0  0  0  0  0  0  0  0  0  0
    4.2319   -0.1952    7.5109 H   0  0  0  0  0  0  0  0  0  0  0  0
    2.8858   -0.9035    5.5525 H   0  0  0  0  0  0  0  0  0  0  0  0
    2.5955    0.5893    3.6457 H   0  0  0  0  0  0  0  0  0  0  0  0
    3.4515    0.1188    0.0352 H   0  0  0  0  0  0  0  0  0  0  0  0
    2.7739   -2.5355    1.1099 H   0  0  0  0  0  0  0  0  0  0  0  0
    1.4187   -3.3859   -1.3622 H   0  0  0  0  0  0  0  0  0  0  0  0
    1.3020   -4.1157    0.2637 H   0  0  0  0  0  0  0  0  0  0  0  0
    3.4813   -7.7129   -2.2510 H   0  0  0  0  0  0  0  0  0  0  0  0
    5.8518   -7.1980   -1.8013 H   0  0  0  0  0  0  0  0  0  0  0  0
    6.4710   -5.0395   -0.7499 H   0  0  0  0  0  0  0  0  0  0  0  0
    4.7533   -3.4016   -0.1633 H   0  0  0  0  0  0  0  0  0  0  0  0
   -0.1627   -2.2236    0.0512 H   0  0  0  0  0  0  0  0  0  0  0  0
  1  2  1  0  0  0  0
  2  3  2  0  0  0  0
  2 30  1  0  0  0  0
  3  4  1  0  0  0  0
  3 31  1  0  0  0  0
  4  5  1  0  0  0  0
  4 19  2  0  0  0  0
  5  6  1  0  0  0  0
  5 32  1  0  0  0  0
  5 33  1  0  0  0  0
  6  7  2  0  0  0  0
  6  8  1  0  0  0  0
  8  9  1  0  0  0  0
  8 34  1  0  0  0  0
  9 10  2  0  0  0  0
  9 18  1  0  0  0  0
 10 11  1  0  0  0  0
 10 35  1  0  0  0  0
 11 12  2  0  0  0  0
 12 13  1  0  0  0  0
 12 36  1  0  0  0  0
 13 14  2  0  0  0  0
 13 18  1  0  0  0  0
 14 15  1  0  0  0  0
 14 37  1  0  0  0  0
 15 16  2  0  0  0  0
 15 38  1  0  0  0  0
 16 17  1  0  0  0  0
 16 39  1  0  0  0  0
 17 18  2  0  0  0  0
 17 40  1  0  0  0  0
 19 20  1  0  0  0  0
 19 41  1  0  0  0  0
 20 21  1  0  0  0  0
 20 30  2  0  0  0  0
 21 22  1  0  0  0  0
 21 42  1  0  0  0  0
 22 23  1  0  0  0  0
 22 43  1  0  0  0  0
 22 44  1  0  0  0  0
 23 24  2  0  0  0  0
 23 29  1  0  0  0  0
 24 25  1  0  0  0  0
 24 26  1  0  0  0  0
 26 27  2  0  0  0  0
 26 45  1  0  0  0  0
 27 28  1  0  0  0  0
 27 46  1  0  0  0  0
 28 29  2  0  0  0  0
 28 47  1  0  0  0  0
 29 48  1  0  0  0  0
 30 49  1  0  0  0  0
M  END
$$$$
