
 OpenBabel07202414153D

 48 51  0  0  0  0  0  0  0  0999 V2000
    4.4730   -0.0344   -3.8629 C   0  0  0  0  0  0  0  0  0  0  0  0
    3.6586    0.5741   -2.8587 O   0  0  0  0  0  0  0  0  0  0  0  0
    4.1888    0.6507   -1.5913 C   0  0  0  0  0  0  0  0  0  0  0  0
    5.3403   -0.0761   -1.2341 C   0  0  0  0  0  0  0  0  0  0  0  0
    5.9645    0.1110   -0.0038 C   0  0  0  0  0  0  0  0  0  0  0  0
    5.4838    1.0688    0.8635 C   0  0  0  0  0  0  0  0  0  0  0  0
    4.3166    1.7639    0.5336 C   0  0  0  0  0  0  0  0  0  0  0  0
    3.9100    2.7433    1.4422 N   0  0  0  0  0  0  0  0  0  0  0  0
    2.7423    3.4151    1.3261 C   0  0  0  0  0  0  0  0  0  0  0  0
    2.4281    4.3485    2.0553 O   0  0  0  0  0  0  0  0  0  0  0  0
    1.8312    2.9253    0.2887 C   0  0  0  0  0  0  0  0  0  0  0  0
    2.2255    2.1650   -0.7511 C   0  0  0  0  0  0  0  0  0  0  0  0
    1.1126    1.7656   -1.7054 C   0  0  0  0  0  0  0  0  0  0  0  0
    1.0560    0.6098   -2.1247 O   0  0  0  0  0  0  0  0  0  0  0  0
    0.1138    2.6900   -2.0361 N   0  0  0  0  0  0  0  0  0  0  0  0
   -1.1232    2.2249   -2.7024 C   0  0  0  0  0  0  0  0  0  0  0  0
   -1.5500    3.1137   -3.9001 C   0  0  0  0  0  0  0  0  0  0  0  0
   -1.4435    4.5536   -3.5818 N   0  0  0  0  0  0  0  0  0  0  0  0
   -2.4107    5.5014   -3.8463 C   0  0  0  0  0  0  0  0  0  0  0  0
   -2.0652    6.8420   -4.1134 C   0  0  0  0  0  0  0  0  0  0  0  0
   -3.0208    7.8439   -4.2940 C   0  0  0  0  0  0  0  0  0  0  0  0
   -4.3682    7.5232   -4.2342 C   0  0  0  0  0  0  0  0  0  0  0  0
   -4.7416    6.2039   -3.9981 C   0  0  0  0  0  0  0  0  0  0  0  0
   -6.4143    5.8029   -3.9114 Cl  0  0  0  0  0  0  0  0  0  0  0  0
   -3.7783    5.2054   -3.8091 C   0  0  0  0  0  0  0  0  0  0  0  0
   -0.1621    4.9570   -2.9950 C   0  0  0  0  0  0  0  0  0  0  0  0
    0.0941    4.1290   -1.7420 C   0  0  0  0  0  0  0  0  0  0  0  0
    3.5885    1.5246   -0.6574 C   0  0  0  0  0  0  0  0  0  0  0  0
    3.9482    0.0232   -4.8170 H   0  0  0  0  0  0  0  0  0  0  0  0
    4.6460   -1.0996   -3.6564 H   0  0  0  0  0  0  0  0  0  0  0  0
    5.4251    0.4976   -3.9732 H   0  0  0  0  0  0  0  0  0  0  0  0
    5.7760   -0.8227   -1.8843 H   0  0  0  0  0  0  0  0  0  0  0  0
    6.8352   -0.4787    0.2644 H   0  0  0  0  0  0  0  0  0  0  0  0
    6.0039    1.2497    1.8001 H   0  0  0  0  0  0  0  0  0  0  0  0
    4.5026    3.0153    2.2153 H   0  0  0  0  0  0  0  0  0  0  0  0
    0.8170    3.2665    0.4425 H   0  0  0  0  0  0  0  0  0  0  0  0
   -1.9145    2.2511   -1.9417 H   0  0  0  0  0  0  0  0  0  0  0  0
   -1.0330    1.1838   -3.0299 H   0  0  0  0  0  0  0  0  0  0  0  0
   -2.5548    2.8215   -4.2233 H   0  0  0  0  0  0  0  0  0  0  0  0
   -0.8788    2.9055   -4.7435 H   0  0  0  0  0  0  0  0  0  0  0  0
   -1.0215    7.1359   -4.1992 H   0  0  0  0  0  0  0  0  0  0  0  0
   -2.7028    8.8672   -4.4771 H   0  0  0  0  0  0  0  0  0  0  0  0
   -5.1158    8.2987   -4.3697 H   0  0  0  0  0  0  0  0  0  0  0  0
   -4.1163    4.2003   -3.5787 H   0  0  0  0  0  0  0  0  0  0  0  0
   -0.1369    6.0031   -2.6820 H   0  0  0  0  0  0  0  0  0  0  0  0
    0.6424    4.7976   -3.7233 H   0  0  0  0  0  0  0  0  0  0  0  0
   -0.7112    4.2969   -1.0119 H   0  0  0  0  0  0  0  0  0  0  0  0
    1.0325    4.4881   -1.3219 H   0  0  0  0  0  0  0  0  0  0  0  0
  1  2  1  0  0  0  0
  1 29  1  0  0  0  0
  1 30  1  0  0  0  0
  1 31  1  0  0  0  0
  2  3  1  0  0  0  0
  3  4  1  0  0  0  0
  3 28  2  0  0  0  0
  4  5  2  0  0  0  0
  4 32  1  0  0  0  0
  5  6  1  0  0  0  0
  5 33  1  0  0  0  0
  6  7  2  0  0  0  0
  6 34  1  0  0  0  0
  7  8  1  0  0  0  0
  7 28  1  0  0  0  0
  8  9  1  0  0  0  0
  8 35  1  0  0  0  0
  9 10  2  0  0  0  0
  9 11  1  0  0  0  0
 11 12  2  0  0  0  0
 11 36  1  0  0  0  0
 12 13  1  0  0  0  0
 12 28  1  0  0  0  0
 13 14  2  0  0  0  0
 13 15  1  0  0  0  0
 15 16  1  0  0  0  0
 15 27  1  0  0  0  0
 16 17  1  0  0  0  0
 16 37  1  0  0  0  0
 16 38  1  0  0  0  0
 17 18  1  0  0  0  0
 17 39  1  0  0  0  0
 17 40  1  0  0  0  0
 18 19  1  0  0  0  0
 18 26  1  0  0  0  0
 19 20  1  0  0  0  0
 19 25  2  0  0  0  0
 20 21  2  0  0  0  0
 20 41  1  0  0  0  0
 21 22  1  0  0  0  0
 21 42  1  0  0  0  0
 22 23  2  0  0  0  0
 22 43  1  0  0  0  0
 23 24  1  0  0  0  0
 23 25  1  0  0  0  0
 25 44  1  0  0  0  0
 26 27  1  0  0  0  0
 26 45  1  0  0  0  0
 26 46  1  0  0  0  0
 27 47  1  0  0  0  0
 27 48  1  0  0  0  0
M  END
$$$$
