
 OpenBabel07202414153D

 50 53  0  0  1  0  0  0  0  0999 V2000
    3.8049    1.1190   -1.6207 C   0  0  0  0  0  0  0  0  0  0  0  0
    3.0613    0.1644   -0.3190 S   0  0  0  0  0  0  0  0  0  0  0  0
    1.6394    0.4068   -0.2963 O   0  0  0  0  0  0  0  0  0  0  0  0
    3.5895   -1.1858   -0.3549 O   0  0  0  0  0  0  0  0  0  0  0  0
    3.6643    0.8751    1.0859 N   0  0  0  0  0  0  0  0  0  0  0  0
    5.0982    0.6680    1.4154 C   0  0  0  0  0  0  0  0  0  0  0  0
    5.5670    1.4074    2.7117 C   0  0  3  0  0  0  0  0  0  0  0  0
    7.1061    1.0577    2.8374 C   0  0  0  0  0  0  0  0  0  0  0  0
    7.9735    1.7868    2.3648 O   0  0  0  0  0  0  0  0  0  0  0  0
    7.4095   -0.1750    3.4080 N   0  0  0  0  0  0  0  0  0  0  0  0
    8.6897   -0.8084    3.4697 C   0  0  0  0  0  0  0  0  0  0  0  0
    9.8313   -0.2858    2.8532 C   0  0  0  0  0  0  0  0  0  0  0  0
   11.0046   -0.9458    2.7227 N   0  0  0  0  0  0  0  0  0  0  0  0
   11.0811   -2.1663    3.2837 C   0  0  0  0  0  0  0  0  0  0  0  0
   10.0648   -2.7423    4.0433 C   0  0  0  0  0  0  0  0  0  0  0  0
   10.2826   -3.9588    4.7164 C   0  0  0  0  0  0  0  0  0  0  0  0
    9.2823   -4.5187    5.5077 C   0  0  0  0  0  0  0  0  0  0  0  0
    8.0512   -3.8882    5.6047 C   0  0  0  0  0  0  0  0  0  0  0  0
    7.8242   -2.6828    4.9286 C   0  0  0  0  0  0  0  0  0  0  0  0
    8.8261   -2.0622    4.1395 C   0  0  0  0  0  0  0  0  0  0  0  0
    4.8280    0.8850    3.9703 C   0  0  0  0  0  0  0  0  0  0  0  0
    3.5026    1.5735    4.2370 C   0  0  0  0  0  0  0  0  0  0  0  0
    3.6423    2.9745    4.3788 O   0  0  0  0  0  0  0  0  0  0  0  0
    4.3901    3.5808    3.4103 C   0  0  0  0  0  0  0  0  0  0  0  0
    4.1858    4.9636    3.3201 C   0  0  0  0  0  0  0  0  0  0  0  0
    4.9455    5.7375    2.4490 C   0  0  0  0  0  0  0  0  0  0  0  0
    5.9011    5.1192    1.6563 C   0  0  0  0  0  0  0  0  0  0  0  0
    6.8998    6.0707    0.6269 Cl  0  0  0  0  0  0  0  0  0  0  0  0
    6.0718    3.7323    1.7045 C   0  0  0  0  0  0  0  0  0  0  0  0
    5.3362    2.9286    2.6039 C   0  0  0  0  0  0  0  0  0  0  0  0
    3.4016    0.7538   -2.5675 H   0  0  0  0  0  0  0  0  0  0  0  0
    4.8844    0.9645   -1.6020 H   0  0  0  0  0  0  0  0  0  0  0  0
    3.5476    2.1639   -1.4817 H   0  0  0  0  0  0  0  0  0  0  0  0
    2.9986    0.6147    1.8107 H   0  0  0  0  0  0  0  0  0  0  0  0
    5.6989    1.0129    0.5659 H   0  0  0  0  0  0  0  0  0  0  0  0
    5.2780   -0.4089    1.5284 H   0  0  0  0  0  0  0  0  0  0  0  0
    6.6514   -0.7208    3.7830 H   0  0  0  0  0  0  0  0  0  0  0  0
    9.8654    0.7033    2.4142 H   0  0  0  0  0  0  0  0  0  0  0  0
   12.0206   -2.6815    3.1112 H   0  0  0  0  0  0  0  0  0  0  0  0
   11.2461   -4.4599    4.6559 H   0  0  0  0  0  0  0  0  0  0  0  0
    9.4729   -5.4377    6.0572 H   0  0  0  0  0  0  0  0  0  0  0  0
    7.2677   -4.3212    6.2213 H   0  0  0  0  0  0  0  0  0  0  0  0
    6.8473   -2.2254    5.0712 H   0  0  0  0  0  0  0  0  0  0  0  0
    5.4635    1.0622    4.8498 H   0  0  0  0  0  0  0  0  0  0  0  0
    4.6606   -0.1971    3.9107 H   0  0  0  0  0  0  0  0  0  0  0  0
    3.0936    1.1936    5.1800 H   0  0  0  0  0  0  0  0  0  0  0  0
    2.7347    1.3705    3.4900 H   0  0  0  0  0  0  0  0  0  0  0  0
    3.4339    5.4384    3.9460 H   0  0  0  0  0  0  0  0  0  0  0  0
    4.7958    6.8122    2.4056 H   0  0  0  0  0  0  0  0  0  0  0  0
    6.8292    3.2964    1.0563 H   0  0  0  0  0  0  0  0  0  0  0  0
  1  2  1  0  0  0  0
  1 31  1  0  0  0  0
  1 32  1  0  0  0  0
  1 33  1  0  0  0  0
  2  3  2  0  0  0  0
  2  4  2  0  0  0  0
  2  5  1  0  0  0  0
  5  6  1  0  0  0  0
  5 34  1  0  0  0  0
  6  7  1  0  0  0  0
  6 35  1  0  0  0  0
  6 36  1  0  0  0  0
  7  8  1  0  0  0  0
  7 21  1  0  0  0  0
  7 30  1  0  0  0  0
  8  9  2  0  0  0  0
  8 10  1  0  0  0  0
 10 11  1  0  0  0  0
 10 37  1  0  0  0  0
 11 12  1  0  0  0  0
 11 20  2  0  0  0  0
 12 13  2  0  0  0  0
 12 38  1  0  0  0  0
 13 14  1  0  0  0  0
 14 15  2  0  0  0  0
 14 39  1  0  0  0  0
 15 16  1  0  0  0  0
 15 20  1  0  0  0  0
 16 17  2  0  0  0  0
 16 40  1  0  0  0  0
 17 18  1  0  0  0  0
 17 41  1  0  0  0  0
 18 19  2  0  0  0  0
 18 42  1  0  0  0  0
 19 20  1  0  0  0  0
 19 43  1  0  0  0  0
 21 22  1  0  0  0  0
 21 44  1  0  0  0  0
 21 45  1  0  0  0  0
 22 23  1  0  0  0  0
 22 46  1  0  0  0  0
 22 47  1  0  0  0  0
 23 24  1  0  0  0  0
 24 25  1  0  0  0  0
 24 30  2  0  0  0  0
 25 26  2  0  0  0  0
 25 48  1  0  0  0  0
 26 27  1  0  0  0  0
 26 49  1  0  0  0  0
 27 28  1  0  0  0  0
 27 29  2  0  0  0  0
 29 30  1  0  0  0  0
 29 50  1  0  0  0  0
M  END
$$$$
