
 OpenBabel07202414153D

 54 57  0  0  1  0  0  0  0  0999 V2000
    2.9383    0.5324   -1.6357 C   0  0  0  0  0  0  0  0  0  0  0  0
    2.5334    0.2729   -0.1824 C   0  0  2  0  0  0  0  0  0  0  0  0
    1.0842    0.4061    0.0527 N   0  0  0  0  0  0  0  0  0  0  0  0
    0.2528    1.4207   -0.4012 C   0  0  0  0  0  0  0  0  0  0  0  0
    0.7038    2.6969   -0.7418 C   0  0  0  0  0  0  0  0  0  0  0  0
   -0.1838    3.6709   -1.2038 C   0  0  0  0  0  0  0  0  0  0  0  0
    0.4148    5.2115   -1.6829 Cl  0  0  0  0  0  0  0  0  0  0  0  0
   -1.5501    3.4186   -1.2679 C   0  0  0  0  0  0  0  0  0  0  0  0
   -2.0516    2.1845   -0.8366 C   0  0  0  0  0  0  0  0  0  0  0  0
   -3.5475    1.9789   -0.7422 C   0  0  0  0  0  0  0  0  0  0  0  0
   -4.1337    0.8316   -1.5396 C   0  0  0  0  0  0  0  0  0  0  0  0
   -4.9721    0.0863   -1.0401 O   0  0  0  0  0  0  0  0  0  0  0  0
   -3.6932    0.7475   -2.8481 N   0  0  0  0  0  0  0  0  0  0  0  0
   -4.1914   -0.2202   -3.7555 C   0  0  0  0  0  0  0  0  0  0  0  0
   -5.5573   -0.4983   -3.8351 C   0  0  0  0  0  0  0  0  0  0  0  0
   -6.1103   -1.3791   -4.6979 N   0  0  0  0  0  0  0  0  0  0  0  0
   -5.2526   -2.0438   -5.5018 C   0  0  0  0  0  0  0  0  0  0  0  0
   -3.8671   -1.8696   -5.5049 C   0  0  0  0  0  0  0  0  0  0  0  0
   -3.0299   -2.6370   -6.3358 C   0  0  0  0  0  0  0  0  0  0  0  0
   -1.6480   -2.4771   -6.2957 C   0  0  0  0  0  0  0  0  0  0  0  0
   -1.0832   -1.5465   -5.4333 C   0  0  0  0  0  0  0  0  0  0  0  0
   -1.9018   -0.7735   -4.6079 C   0  0  0  0  0  0  0  0  0  0  0  0
   -3.3116   -0.9165   -4.6215 C   0  0  0  0  0  0  0  0  0  0  0  0
   -1.1406    1.2015   -0.4058 C   0  0  0  0  0  0  0  0  0  0  0  0
    3.4043    0.8967    0.9082 C   0  0  0  0  0  0  0  0  0  0  0  0
    2.8528    1.5374    2.0321 C   0  0  0  0  0  0  0  0  0  0  0  0
    3.6314    1.8195    3.1601 C   0  0  0  0  0  0  0  0  0  0  0  0
    4.9831    1.4646    3.1716 C   0  0  0  0  0  0  0  0  0  0  0  0
    5.7539    1.5685    4.4174 N   0  3  0  0  0  0  0  0  0  0  0  0
    5.1566    1.9435    5.4367 O   0  5  0  0  0  0  0  0  0  0  0  0
    6.9499    1.2444    4.3842 O   0  0  0  0  0  0  0  0  0  0  0  0
    5.5817    0.9251    2.0292 C   0  0  0  0  0  0  0  0  0  0  0  0
    4.7929    0.6485    0.9070 C   0  0  0  0  0  0  0  0  0  0  0  0
    3.9888    0.2822   -1.8136 H   0  0  0  0  0  0  0  0  0  0  0  0
    2.8119    1.5725   -1.9423 H   0  0  0  0  0  0  0  0  0  0  0  0
    2.3387   -0.0890   -2.3108 H   0  0  0  0  0  0  0  0  0  0  0  0
    2.7164   -0.8027   -0.0359 H   0  0  0  0  0  0  0  0  0  0  0  0
    0.6265   -0.5017    0.0837 H   0  0  0  0  0  0  0  0  0  0  0  0
    1.7512    2.9595   -0.6416 H   0  0  0  0  0  0  0  0  0  0  0  0
   -2.2244    4.1956   -1.6185 H   0  0  0  0  0  0  0  0  0  0  0  0
   -4.0799    2.8829   -1.0637 H   0  0  0  0  0  0  0  0  0  0  0  0
   -3.8013    1.8257    0.3142 H   0  0  0  0  0  0  0  0  0  0  0  0
   -2.7925    1.1588   -3.0502 H   0  0  0  0  0  0  0  0  0  0  0  0
   -6.2794    0.0217   -3.2089 H   0  0  0  0  0  0  0  0  0  0  0  0
   -5.7313   -2.7616   -6.1633 H   0  0  0  0  0  0  0  0  0  0  0  0
   -3.4573   -3.3810   -7.0061 H   0  0  0  0  0  0  0  0  0  0  0  0
   -1.0116   -3.0900   -6.9282 H   0  0  0  0  0  0  0  0  0  0  0  0
   -0.0042   -1.4303   -5.3873 H   0  0  0  0  0  0  0  0  0  0  0  0
   -1.4116   -0.0801   -3.9322 H   0  0  0  0  0  0  0  0  0  0  0  0
   -1.5281    0.2489   -0.0445 H   0  0  0  0  0  0  0  0  0  0  0  0
    1.7883    1.7616    2.0734 H   0  0  0  0  0  0  0  0  0  0  0  0
    3.1541    2.2591    4.0338 H   0  0  0  0  0  0  0  0  0  0  0  0
    6.6372    0.6601    2.0154 H   0  0  0  0  0  0  0  0  0  0  0  0
    5.2689    0.1590    0.0589 H   0  0  0  0  0  0  0  0  0  0  0  0
  1 34  1  0  0  0  0
  1 35  1  0  0  0  0
  1 36  1  0  0  0  0
  2 25  1  0  0  0  0
  2  3  1  0  0  0  0
  2  1  1  0  0  0  0
  2 37  1  1  0  0  0
  3  4  1  0  0  0  0
  3 38  1  0  0  0  0
  4  5  1  0  0  0  0
  4 24  2  0  0  0  0
  5  6  2  0  0  0  0
  5 39  1  0  0  0  0
  6  7  1  0  0  0  0
  6  8  1  0  0  0  0
  8  9  2  0  0  0  0
  8 40  1  0  0  0  0
  9 10  1  0  0  0  0
  9 24  1  0  0  0  0
 10 11  1  0  0  0  0
 10 41  1  0  0  0  0
 10 42  1  0  0  0  0
 11 12  2  0  0  0  0
 11 13  1  0  0  0  0
 13 14  1  0  0  0  0
 13 43  1  0  0  0  0
 14 15  1  0  0  0  0
 14 23  2  0  0  0  0
 15 16  2  0  0  0  0
 15 44  1  0  0  0  0
 16 17  1  0  0  0  0
 17 18  2  0  0  0  0
 17 45  1  0  0  0  0
 18 19  1  0  0  0  0
 18 23  1  0  0  0  0
 19 20  2  0  0  0  0
 19 46  1  0  0  0  0
 20 21  1  0  0  0  0
 20 47  1  0  0  0  0
 21 22  2  0  0  0  0
 21 48  1  0  0  0  0
 22 23  1  0  0  0  0
 22 49  1  0  0  0  0
 24 50  1  0  0  0  0
 25 26  1  0  0  0  0
 25 33  2  0  0  0  0
 26 27  2  0  0  0  0
 26 51  1  0  0  0  0
 27 28  1  0  0  0  0
 27 52  1  0  0  0  0
 28 29  1  0  0  0  0
 28 32  2  0  0  0  0
 29 30  1  0  0  0  0
 29 31  2  0  0  0  0
 32 33  1  0  0  0  0
 32 53  1  0  0  0  0
 33 54  1  0  0  0  0
M  CHG  2  29   1  30  -1
M  END
$$$$
