
 OpenBabel07202414163D

 45 48  0  0  0  0  0  0  0  0999 V2000
    0.8011   -1.6853    2.5820 Cl  0  0  0  0  0  0  0  0  0  0  0  0
    0.8219   -0.7289    1.1503 C   0  0  0  0  0  0  0  0  0  0  0  0
    1.5351    0.4692    1.1354 C   0  0  0  0  0  0  0  0  0  0  0  0
    1.5635    1.2467   -0.0258 C   0  0  0  0  0  0  0  0  0  0  0  0
    2.3056    2.5598   -0.0725 C   0  0  0  0  0  0  0  0  0  0  0  0
    1.4367    3.7366   -0.4833 C   0  0  0  0  0  0  0  0  0  0  0  0
    1.8221    4.5419   -1.3257 O   0  0  0  0  0  0  0  0  0  0  0  0
    0.2606    3.8652    0.2362 N   0  0  0  0  0  0  0  0  0  0  0  0
   -0.6818    4.8980    0.0105 C   0  0  0  0  0  0  0  0  0  0  0  0
   -0.9881    5.3299   -1.2801 C   0  0  0  0  0  0  0  0  0  0  0  0
   -1.9054    6.2793   -1.5714 N   0  0  0  0  0  0  0  0  0  0  0  0
   -2.5241    6.8561   -0.5194 C   0  0  0  0  0  0  0  0  0  0  0  0
   -2.2857    6.5306    0.8185 C   0  0  0  0  0  0  0  0  0  0  0  0
   -2.9357    7.2073    1.8661 C   0  0  0  0  0  0  0  0  0  0  0  0
   -2.6537    6.8974    3.1952 C   0  0  0  0  0  0  0  0  0  0  0  0
   -1.7316    5.9024    3.4930 C   0  0  0  0  0  0  0  0  0  0  0  0
   -1.0930    5.2110    2.4599 C   0  0  0  0  0  0  0  0  0  0  0  0
   -1.3524    5.5070    1.0997 C   0  0  0  0  0  0  0  0  0  0  0  0
    0.8983    0.7820   -1.1707 C   0  0  0  0  0  0  0  0  0  0  0  0
    0.1673   -0.4123   -1.1594 C   0  0  0  0  0  0  0  0  0  0  0  0
   -0.4800   -0.8857   -2.3123 N   0  0  0  0  0  0  0  0  0  0  0  0
   -0.0667   -0.8266   -3.6532 C   0  0  0  0  0  0  0  0  0  0  0  0
   -1.0139   -0.8122   -4.6802 C   0  0  0  0  0  0  0  0  0  0  0  0
   -0.5973   -0.7225   -6.0074 C   0  0  0  0  0  0  0  0  0  0  0  0
   -1.8606   -0.7050   -7.4074 Br  0  0  0  0  0  0  0  0  0  0  0  0
    0.7590   -0.6435   -6.2789 C   0  0  0  0  0  0  0  0  0  0  0  0
    1.7113   -0.6463   -5.3207 N   0  0  0  0  0  0  0  0  0  0  0  0
    1.2741   -0.7323   -4.0397 C   0  0  0  0  0  0  0  0  0  0  0  0
    0.1308   -1.1641    0.0184 C   0  0  0  0  0  0  0  0  0  0  0  0
    2.0719    0.7868    2.0274 H   0  0  0  0  0  0  0  0  0  0  0  0
    3.1213    2.4674   -0.7967 H   0  0  0  0  0  0  0  0  0  0  0  0
    2.7588    2.7957    0.8979 H   0  0  0  0  0  0  0  0  0  0  0  0
    0.1835    3.3386    1.0944 H   0  0  0  0  0  0  0  0  0  0  0  0
   -0.5184    4.8857   -2.1543 H   0  0  0  0  0  0  0  0  0  0  0  0
   -3.2363    7.6319   -0.7922 H   0  0  0  0  0  0  0  0  0  0  0  0
   -3.6475    8.0017    1.6508 H   0  0  0  0  0  0  0  0  0  0  0  0
   -3.1413    7.4449    3.9978 H   0  0  0  0  0  0  0  0  0  0  0  0
   -1.4929    5.6716    4.5282 H   0  0  0  0  0  0  0  0  0  0  0  0
   -0.3553    4.4669    2.7441 H   0  0  0  0  0  0  0  0  0  0  0  0
    0.9214    1.3828   -2.0802 H   0  0  0  0  0  0  0  0  0  0  0  0
   -1.4211   -1.2301   -2.1560 H   0  0  0  0  0  0  0  0  0  0  0  0
   -2.0735   -0.8590   -4.4481 H   0  0  0  0  0  0  0  0  0  0  0  0
    1.1343   -0.5731   -7.2957 H   0  0  0  0  0  0  0  0  0  0  0  0
    2.0712   -0.7490   -3.3008 H   0  0  0  0  0  0  0  0  0  0  0  0
   -0.4057   -2.1088    0.0447 H   0  0  0  0  0  0  0  0  0  0  0  0
  1  2  1  0  0  0  0
  2  3  2  0  0  0  0
  2 29  1  0  0  0  0
  3  4  1  0  0  0  0
  3 30  1  0  0  0  0
  4  5  1  0  0  0  0
  4 19  2  0  0  0  0
  5  6  1  0  0  0  0
  5 31  1  0  0  0  0
  5 32  1  0  0  0  0
  6  7  2  0  0  0  0
  6  8  1  0  0  0  0
  8  9  1  0  0  0  0
  8 33  1  0  0  0  0
  9 10  2  0  0  0  0
  9 18  1  0  0  0  0
 10 11  1  0  0  0  0
 10 34  1  0  0  0  0
 11 12  2  0  0  0  0
 12 13  1  0  0  0  0
 12 35  1  0  0  0  0
 13 14  2  0  0  0  0
 13 18  1  0  0  0  0
 14 15  1  0  0  0  0
 14 36  1  0  0  0  0
 15 16  2  0  0  0  0
 15 37  1  0  0  0  0
 16 17  1  0  0  0  0
 16 38  1  0  0  0  0
 17 18  2  0  0  0  0
 17 39  1  0  0  0  0
 19 20  1  0  0  0  0
 19 40  1  0  0  0  0
 20 21  1  0  0  0  0
 20 29  2  0  0  0  0
 21 22  1  0  0  0  0
 21 41  1  0  0  0  0
 22 23  2  0  0  0  0
 22 28  1  0  0  0  0
 23 24  1  0  0  0  0
 23 42  1  0  0  0  0
 24 25  1  0  0  0  0
 24 26  2  0  0  0  0
 26 27  1  0  0  0  0
 26 43  1  0  0  0  0
 27 28  2  0  0  0  0
 28 44  1  0  0  0  0
 29 45  1  0  0  0  0
M  END
$$$$
