
 OpenBabel07202414123D

 70 73  0  0  1  0  0  0  0  0999 V2000
    4.1839    1.2236   -2.0676 C   0  0  0  0  0  0  0  0  0  0  0  0
    3.0331    0.9936   -1.0609 C   0  0  0  0  0  0  0  0  0  0  0  0
    1.7670    1.6263   -1.6860 C   0  0  0  0  0  0  0  0  0  0  0  0
    2.8018   -0.5260   -0.9402 C   0  0  0  0  0  0  0  0  0  0  0  0
    3.3231    1.6169    0.3189 C   0  0  0  0  0  0  0  0  0  0  0  0
    4.4896    2.3498    0.5836 C   0  0  0  0  0  0  0  0  0  0  0  0
    4.6594    3.0529    1.7849 C   0  0  0  0  0  0  0  0  0  0  0  0
    3.6932    3.0122    2.7988 C   0  0  0  0  0  0  0  0  0  0  0  0
    3.8233    3.8883    3.9446 N   0  0  0  0  0  0  0  0  0  0  0  0
    3.8285    3.2887    5.3324 C   0  0  3  0  0  0  0  0  0  0  0  0
    2.6408    2.3964    5.8298 C   0  0  0  0  0  0  0  0  0  0  0  0
    2.2953    1.3529    5.2959 O   0  0  0  0  0  0  0  0  0  0  0  0
    2.0141    2.8436    6.9920 N   0  0  0  0  0  0  0  0  0  0  0  0
    0.9541    2.0185    7.5574 C   0  0  0  0  0  0  0  0  0  0  0  0
    0.4029    2.6216    8.8431 C   0  0  0  0  0  0  0  0  0  0  0  0
   -0.7250    1.8465    9.4795 C   0  0  0  0  0  0  0  0  0  0  0  0
   -0.5437    0.5303    9.9329 C   0  0  0  0  0  0  0  0  0  0  0  0
   -1.5566   -0.1255   10.6414 C   0  0  0  0  0  0  0  0  0  0  0  0
   -2.7609    0.5257   10.9006 C   0  0  0  0  0  0  0  0  0  0  0  0
   -2.9519    1.8174   10.4287 C   0  0  0  0  0  0  0  0  0  0  0  0
   -4.1054    2.4498   10.6816 F   0  0  0  0  0  0  0  0  0  0  0  0
   -1.9532    2.4779    9.7201 C   0  0  0  0  0  0  0  0  0  0  0  0
    5.1316    2.5863    5.7228 C   0  0  0  0  0  0  0  0  0  0  0  0
    5.8743    1.7933    4.8497 C   0  0  0  0  0  0  0  0  0  0  0  0
    7.0324    1.1473    5.2780 C   0  0  0  0  0  0  0  0  0  0  0  0
    7.3998    1.2702    6.6015 C   0  0  0  0  0  0  0  0  0  0  0  0
    6.6863    1.9725    7.5047 N   0  0  0  0  0  0  0  0  0  0  0  0
    5.5776    2.6104    7.0465 C   0  0  0  0  0  0  0  0  0  0  0  0
    3.8942    5.2641    3.6188 C   0  0  0  0  0  0  0  0  0  0  0  0
    3.8108    5.6759    2.4547 O   0  0  0  0  0  0  0  0  0  0  0  0
    3.9762    6.3340    4.6820 C   0  0  0  0  0  0  0  0  0  0  0  0
    3.4962    7.5599    4.4006 C   0  0  0  0  0  0  0  0  0  0  0  0
    3.4167    8.5494    5.4362 C   0  0  0  0  0  0  0  0  0  0  0  0
    3.8086    8.2651    6.6846 C   0  0  0  0  0  0  0  0  0  0  0  0
    3.5946    9.1351    7.7391 O   0  0  0  0  0  0  0  0  0  0  0  0
    4.4640    6.9509    6.9690 C   0  0  0  0  0  0  0  0  0  0  0  0
    4.8648    6.6470    8.0884 O   0  0  0  0  0  0  0  0  0  0  0  0
    4.5580    6.0627    5.9355 O   0  0  0  0  0  0  0  0  0  0  0  0
    2.5711    2.2165    2.5794 C   0  0  0  0  0  0  0  0  0  0  0  0
    2.3894    1.5297    1.3642 C   0  0  0  0  0  0  0  0  0  0  0  0
    3.9591    0.7857   -3.0459 H   0  0  0  0  0  0  0  0  0  0  0  0
    5.1201    0.7755   -1.7156 H   0  0  0  0  0  0  0  0  0  0  0  0
    4.3591    2.2950   -2.2297 H   0  0  0  0  0  0  0  0  0  0  0  0
    1.5573    1.1882   -2.6716 H   0  0  0  0  0  0  0  0  0  0  0  0
    1.8874    2.7065   -1.8279 H   0  0  0  0  0  0  0  0  0  0  0  0
    0.8745    1.4689   -1.0712 H   0  0  0  0  0  0  0  0  0  0  0  0
    2.5759   -0.9668   -1.9195 H   0  0  0  0  0  0  0  0  0  0  0  0
    1.9572   -0.7635   -0.2839 H   0  0  0  0  0  0  0  0  0  0  0  0
    3.6863   -1.0336   -0.5418 H   0  0  0  0  0  0  0  0  0  0  0  0
    5.2870    2.4334   -0.1487 H   0  0  0  0  0  0  0  0  0  0  0  0
    5.5590    3.6526    1.9076 H   0  0  0  0  0  0  0  0  0  0  0  0
    3.7631    4.1381    6.0065 H   0  0  0  0  0  0  0  0  0  0  0  0
    2.5578    3.4036    7.6341 H   0  0  0  0  0  0  0  0  0  0  0  0
    1.3683    1.0200    7.7319 H   0  0  0  0  0  0  0  0  0  0  0  0
    0.1682    1.9209    6.8004 H   0  0  0  0  0  0  0  0  0  0  0  0
    0.0779    3.6493    8.6407 H   0  0  0  0  0  0  0  0  0  0  0  0
    1.2096    2.7069    9.5837 H   0  0  0  0  0  0  0  0  0  0  0  0
    0.3980    0.0100    9.7660 H   0  0  0  0  0  0  0  0  0  0  0  0
   -1.3970   -1.1363   11.0094 H   0  0  0  0  0  0  0  0  0  0  0  0
   -3.5452    0.0407   11.4725 H   0  0  0  0  0  0  0  0  0  0  0  0
   -2.1384    3.4945    9.3864 H   0  0  0  0  0  0  0  0  0  0  0  0
    5.5646    1.6265    3.8274 H   0  0  0  0  0  0  0  0  0  0  0  0
    7.6183    0.5507    4.5878 H   0  0  0  0  0  0  0  0  0  0  0  0
    8.2969    0.7900    6.9801 H   0  0  0  0  0  0  0  0  0  0  0  0
    5.0386    3.1366    7.8313 H   0  0  0  0  0  0  0  0  0  0  0  0
    3.0960    7.8116    3.4198 H   0  0  0  0  0  0  0  0  0  0  0  0
    2.9577    9.5006    5.1829 H   0  0  0  0  0  0  0  0  0  0  0  0
    2.9626    9.8202    7.4649 H   0  0  0  0  0  0  0  0  0  0  0  0
    1.7593    2.1669    3.2939 H   0  0  0  0  0  0  0  0  0  0  0  0
    1.4705    0.9597    1.2398 H   0  0  0  0  0  0  0  0  0  0  0  0
  1  2  1  0  0  0  0
  1 41  1  0  0  0  0
  1 42  1  0  0  0  0
  1 43  1  0  0  0  0
  2  3  1  0  0  0  0
  2  4  1  0  0  0  0
  2  5  1  0  0  0  0
  3 44  1  0  0  0  0
  3 45  1  0  0  0  0
  3 46  1  0  0  0  0
  4 47  1  0  0  0  0
  4 48  1  0  0  0  0
  4 49  1  0  0  0  0
  5  6  1  0  0  0  0
  5 40  2  0  0  0  0
  6  7  2  0  0  0  0
  6 50  1  0  0  0  0
  7  8  1  0  0  0  0
  7 51  1  0  0  0  0
  8  9  1  0  0  0  0
  8 39  2  0  0  0  0
  9 10  1  0  0  0  0
  9 29  1  0  0  0  0
 10 11  1  0  0  0  0
 10 23  1  0  0  0  0
 10 52  1  0  0  0  0
 11 12  2  0  0  0  0
 11 13  1  0  0  0  0
 13 14  1  0  0  0  0
 13 53  1  0  0  0  0
 14 15  1  0  0  0  0
 14 54  1  0  0  0  0
 14 55  1  0  0  0  0
 15 16  1  0  0  0  0
 15 56  1  0  0  0  0
 15 57  1  0  0  0  0
 16 17  1  0  0  0  0
 16 22  2  0  0  0  0
 17 18  2  0  0  0  0
 17 58  1  0  0  0  0
 18 19  1  0  0  0  0
 18 59  1  0  0  0  0
 19 20  2  0  0  0  0
 19 60  1  0  0  0  0
 20 21  1  0  0  0  0
 20 22  1  0  0  0  0
 22 61  1  0  0  0  0
 23 24  1  0  0  0  0
 23 28  2  0  0  0  0
 24 25  2  0  0  0  0
 24 62  1  0  0  0  0
 25 26  1  0  0  0  0
 25 63  1  0  0  0  0
 26 27  2  0  0  0  0
 26 64  1  0  0  0  0
 27 28  1  0  0  0  0
 28 65  1  0  0  0  0
 29 30  2  0  0  0  0
 29 31  1  0  0  0  0
 31 32  2  0  0  0  0
 31 38  1  0  0  0  0
 32 33  1  0  0  0  0
 32 66  1  0  0  0  0
 33 34  2  0  0  0  0
 33 67  1  0  0  0  0
 34 35  1  0  0  0  0
 34 36  1  0  0  0  0
 35 68  1  0  0  0  0
 36 37  2  0  0  0  0
 36 38  1  0  0  0  0
 39 40  1  0  0  0  0
 39 69  1  0  0  0  0
 40 70  1  0  0  0  0
M  END
$$$$
