
 OpenBabel07202414163D

 47 50  0  0  0  0  0  0  0  0999 V2000
    0.3168    1.6101    2.6383 C   0  0  0  0  0  0  0  0  0  0  0  0
   -0.4736    0.5178    1.9727 C   0  0  0  0  0  0  0  0  0  0  0  0
   -1.8703    0.5998    1.9439 C   0  0  0  0  0  0  0  0  0  0  0  0
   -2.6344   -0.3879    1.3120 C   0  0  0  0  0  0  0  0  0  0  0  0
   -2.0281   -1.4956    0.7027 C   0  0  0  0  0  0  0  0  0  0  0  0
   -0.6323   -1.5842    0.7425 C   0  0  0  0  0  0  0  0  0  0  0  0
    0.1358   -0.5908    1.3666 C   0  0  0  0  0  0  0  0  0  0  0  0
    1.8557   -0.7713    1.3558 Cl  0  0  0  0  0  0  0  0  0  0  0  0
   -2.7648   -2.5115    0.0224 N   0  0  0  0  0  0  0  0  0  0  0  0
   -4.1389   -2.4353   -0.1161 C   0  0  0  0  0  0  0  0  0  0  0  0
   -4.8985   -1.8366   -1.0470 C   0  0  0  0  0  0  0  0  0  0  0  0
   -6.3014   -1.9219   -0.6028 C   0  0  0  0  0  0  0  0  0  0  0  0
   -7.2426   -1.3487   -1.1311 O   0  0  0  0  0  0  0  0  0  0  0  0
   -6.3300   -2.6800    0.5197 N   0  0  0  0  0  0  0  0  0  0  0  0
   -5.0719   -3.0459    0.8708 C   0  0  0  0  0  0  0  0  0  0  0  0
   -4.7171   -3.7186    1.8235 O   0  0  0  0  0  0  0  0  0  0  0  0
   -7.5247   -2.9330    1.2972 C   0  0  0  0  0  0  0  0  0  0  0  0
   -8.3048   -4.1101    0.7877 C   0  0  0  0  0  0  0  0  0  0  0  0
   -8.0723   -5.4027    1.2666 C   0  0  0  0  0  0  0  0  0  0  0  0
   -8.7870   -6.4747    0.7386 C   0  0  0  0  0  0  0  0  0  0  0  0
   -9.7170   -6.2187   -0.2544 C   0  0  0  0  0  0  0  0  0  0  0  0
   -9.9809   -4.9848   -0.7325 N   0  0  0  0  0  0  0  0  0  0  0  0
   -9.2705   -3.9608   -0.2052 C   0  0  0  0  0  0  0  0  0  0  0  0
   -4.4409   -1.1647   -2.2548 C   0  0  0  0  0  0  0  0  0  0  0  0
   -4.2435   -1.8991   -3.4329 C   0  0  0  0  0  0  0  0  0  0  0  0
   -3.8324   -1.2575   -4.6022 C   0  0  0  0  0  0  0  0  0  0  0  0
   -3.6109    0.1191   -4.5999 C   0  0  0  0  0  0  0  0  0  0  0  0
   -3.7902    0.8514   -3.4277 C   0  0  0  0  0  0  0  0  0  0  0  0
   -4.2034    0.2136   -2.2571 C   0  0  0  0  0  0  0  0  0  0  0  0
   -0.3375    2.4020    3.0194 H   0  0  0  0  0  0  0  0  0  0  0  0
    1.0039    2.0753    1.9239 H   0  0  0  0  0  0  0  0  0  0  0  0
    0.8816    1.2135    3.4874 H   0  0  0  0  0  0  0  0  0  0  0  0
   -2.3816    1.4400    2.4107 H   0  0  0  0  0  0  0  0  0  0  0  0
   -3.7140   -0.2709    1.3249 H   0  0  0  0  0  0  0  0  0  0  0  0
   -0.1314   -2.4227    0.2639 H   0  0  0  0  0  0  0  0  0  0  0  0
   -2.4984   -3.4091    0.4447 H   0  0  0  0  0  0  0  0  0  0  0  0
   -8.1559   -2.0357    1.2740 H   0  0  0  0  0  0  0  0  0  0  0  0
   -7.2446   -3.0975    2.3450 H   0  0  0  0  0  0  0  0  0  0  0  0
   -7.3341   -5.5804    2.0461 H   0  0  0  0  0  0  0  0  0  0  0  0
   -8.6174   -7.4868    1.0886 H   0  0  0  0  0  0  0  0  0  0  0  0
  -10.2874   -7.0234   -0.7096 H   0  0  0  0  0  0  0  0  0  0  0  0
   -9.5071   -2.9850   -0.6250 H   0  0  0  0  0  0  0  0  0  0  0  0
   -4.4138   -2.9730   -3.4518 H   0  0  0  0  0  0  0  0  0  0  0  0
   -3.6918   -1.8294   -5.5156 H   0  0  0  0  0  0  0  0  0  0  0  0
   -3.3006    0.6203   -5.5131 H   0  0  0  0  0  0  0  0  0  0  0  0
   -3.6128    1.9250   -3.4270 H   0  0  0  0  0  0  0  0  0  0  0  0
   -4.3414    0.8009   -1.3534 H   0  0  0  0  0  0  0  0  0  0  0  0
  1  2  1  0  0  0  0
  1 30  1  0  0  0  0
  1 31  1  0  0  0  0
  1 32  1  0  0  0  0
  2  3  1  0  0  0  0
  2  7  2  0  0  0  0
  3  4  2  0  0  0  0
  3 33  1  0  0  0  0
  4  5  1  0  0  0  0
  4 34  1  0  0  0  0
  5  6  2  0  0  0  0
  5  9  1  0  0  0  0
  6  7  1  0  0  0  0
  6 35  1  0  0  0  0
  7  8  1  0  0  0  0
  9 10  1  0  0  0  0
  9 36  1  0  0  0  0
 10 11  2  0  0  0  0
 10 15  1  0  0  0  0
 11 12  1  0  0  0  0
 11 24  1  0  0  0  0
 12 13  2  0  0  0  0
 12 14  1  0  0  0  0
 14 15  1  0  0  0  0
 14 17  1  0  0  0  0
 15 16  2  0  0  0  0
 17 18  1  0  0  0  0
 17 37  1  0  0  0  0
 17 38  1  0  0  0  0
 18 19  1  0  0  0  0
 18 23  2  0  0  0  0
 19 20  2  0  0  0  0
 19 39  1  0  0  0  0
 20 21  1  0  0  0  0
 20 40  1  0  0  0  0
 21 22  2  0  0  0  0
 21 41  1  0  0  0  0
 22 23  1  0  0  0  0
 23 42  1  0  0  0  0
 24 25  1  0  0  0  0
 24 29  2  0  0  0  0
 25 26  2  0  0  0  0
 25 43  1  0  0  0  0
 26 27  1  0  0  0  0
 26 44  1  0  0  0  0
 27 28  2  0  0  0  0
 27 45  1  0  0  0  0
 28 29  1  0  0  0  0
 28 46  1  0  0  0  0
 29 47  1  0  0  0  0
M  END
$$$$
