
 OpenBabel07202414153D

 34 36  0  0  0  0  0  0  0  0999 V2000
    2.3501    3.1282    3.4683 C   0  0  0  0  0  0  0  0  0  0  0  0
    3.6113    3.0115    2.8230 O   0  0  0  0  0  0  0  0  0  0  0  0
    3.5992    2.7812    1.4755 C   0  0  0  0  0  0  0  0  0  0  0  0
    2.4710    2.5431    0.6904 C   0  0  0  0  0  0  0  0  0  0  0  0
    2.6040    2.3366   -0.6865 C   0  0  0  0  0  0  0  0  0  0  0  0
    3.8643    2.3735   -1.2857 C   0  0  0  0  0  0  0  0  0  0  0  0
    4.9982    2.6103   -0.5036 C   0  0  0  0  0  0  0  0  0  0  0  0
    6.3194    2.6762   -1.1433 C   0  0  0  0  0  0  0  0  0  0  0  0
    6.5853    2.6355   -2.4107 N   0  0  0  0  0  0  0  0  0  0  0  0
    7.9581    2.7266   -2.4356 C   0  0  0  0  0  0  0  0  0  0  0  0
    8.6818    2.6706   -3.5616 C   0  0  0  0  0  0  0  0  0  0  0  0
   10.1015    2.6782   -3.5737 C   0  0  0  0  0  0  0  0  0  0  0  0
   10.9300    1.1717   -3.6545 S   0  0  0  0  0  0  0  0  0  0  0  0
   12.4562    1.9258   -3.6151 C   0  0  0  0  0  0  0  0  0  0  0  0
   12.3509    3.2959   -3.5745 C   0  0  0  0  0  0  0  0  0  0  0  0
   10.9889    3.7481   -3.5486 C   0  0  0  0  0  0  0  0  0  0  0  0
   10.6005    5.1899   -3.4835 C   0  0  0  0  0  0  0  0  0  0  0  0
    8.4870    2.8551   -1.0441 C   0  0  0  0  0  0  0  0  0  0  0  0
    9.6178    3.0007   -0.6295 O   0  0  0  0  0  0  0  0  0  0  0  0
    7.3582    2.7994   -0.2877 O   0  0  0  0  0  0  0  0  0  0  0  0
    4.8607    2.8014    0.8766 C   0  0  0  0  0  0  0  0  0  0  0  0
    2.5333    3.4110    4.5094 H   0  0  0  0  0  0  0  0  0  0  0  0
    1.8235    2.1687    3.4679 H   0  0  0  0  0  0  0  0  0  0  0  0
    1.7401    3.9159    3.0137 H   0  0  0  0  0  0  0  0  0  0  0  0
    1.4742    2.5121    1.1185 H   0  0  0  0  0  0  0  0  0  0  0  0
    1.7203    2.1520   -1.2933 H   0  0  0  0  0  0  0  0  0  0  0  0
    3.9529    2.2183   -2.3591 H   0  0  0  0  0  0  0  0  0  0  0  0
    8.1714    2.5596   -4.5135 H   0  0  0  0  0  0  0  0  0  0  0  0
   13.3584    1.3308   -3.6266 H   0  0  0  0  0  0  0  0  0  0  0  0
   13.2140    3.9503   -3.5518 H   0  0  0  0  0  0  0  0  0  0  0  0
   11.4833    5.8379   -3.4755 H   0  0  0  0  0  0  0  0  0  0  0  0
   10.0276    5.3939   -2.5734 H   0  0  0  0  0  0  0  0  0  0  0  0
    9.9911    5.4627   -4.3509 H   0  0  0  0  0  0  0  0  0  0  0  0
    5.7295    2.9830    1.5054 H   0  0  0  0  0  0  0  0  0  0  0  0
  1  2  1  0  0  0  0
  1 22  1  0  0  0  0
  1 23  1  0  0  0  0
  1 24  1  0  0  0  0
  2  3  1  0  0  0  0
  3  4  1  0  0  0  0
  3 21  2  0  0  0  0
  4  5  2  0  0  0  0
  4 25  1  0  0  0  0
  5  6  1  0  0  0  0
  5 26  1  0  0  0  0
  6  7  2  0  0  0  0
  6 27  1  0  0  0  0
  7  8  1  0  0  0  0
  7 21  1  0  0  0  0
  8  9  2  0  0  0  0
  8 20  1  0  0  0  0
  9 10  1  0  0  0  0
 10 11  2  0  0  0  0
 10 18  1  0  0  0  0
 11 12  1  0  0  0  0
 11 28  1  0  0  0  0
 12 13  1  0  0  0  0
 12 16  2  0  0  0  0
 13 14  1  0  0  0  0
 14 15  2  0  0  0  0
 14 29  1  0  0  0  0
 15 16  1  0  0  0  0
 15 30  1  0  0  0  0
 16 17  1  0  0  0  0
 17 31  1  0  0  0  0
 17 32  1  0  0  0  0
 17 33  1  0  0  0  0
 18 19  2  0  0  0  0
 18 20  1  0  0  0  0
 21 34  1  0  0  0  0
M  END
$$$$
