
 OpenBabel07202414153D

 42 45  0  0  1  0  0  0  0  0999 V2000
    2.9099   -0.0264   -1.3319 C   0  0  0  0  0  0  0  0  0  0  0  0
    2.5853    0.1787    0.1499 C   0  0  1  0  0  0  0  0  0  0  0  0
    2.9681   -0.9912    1.0460 C   0  0  0  0  0  0  0  0  0  0  0  0
    4.4848   -1.1759    1.0795 C   0  0  1  0  0  0  0  0  0  0  0  0
    5.1963    0.1546    1.1750 C   0  0  0  0  0  0  0  0  0  0  0  0
    6.5872    0.2195    1.3587 C   0  0  0  0  0  0  0  0  0  0  0  0
    7.2361    1.4558    1.3847 C   0  0  0  0  0  0  0  0  0  0  0  0
    6.5191    2.6368    1.2332 C   0  0  0  0  0  0  0  0  0  0  0  0
    5.1427    2.5813    1.0121 C   0  0  0  0  0  0  0  0  0  0  0  0
    4.4936    1.3475    0.9507 C   0  0  0  0  0  0  0  0  0  0  0  0
    3.1615    1.3998    0.6341 O   0  0  0  0  0  0  0  0  0  0  0  0
    8.9422    1.5192    1.5910 Cl  0  0  0  0  0  0  0  0  0  0  0  0
    4.8136   -2.2291    2.1355 C   0  0  0  0  0  0  0  0  0  0  0  0
    4.8695   -3.4058    1.7741 O   0  0  0  0  0  0  0  0  0  0  0  0
    4.9546   -1.8016    3.4519 N   0  0  0  0  0  0  0  0  0  0  0  0
    5.1756   -2.6790    4.5640 C   0  0  0  0  0  0  0  0  0  0  0  0
    4.8709   -4.0424    4.4911 C   0  0  0  0  0  0  0  0  0  0  0  0
    5.1561   -4.9599    5.4426 N   0  0  0  0  0  0  0  0  0  0  0  0
    5.7838   -4.5030    6.5397 C   0  0  0  0  0  0  0  0  0  0  0  0
    6.0757   -3.1636    6.7807 C   0  0  0  0  0  0  0  0  0  0  0  0
    5.7291   -2.2041    5.7926 C   0  0  0  0  0  0  0  0  0  0  0  0
    5.9739   -0.8458    6.1207 C   0  0  0  0  0  0  0  0  0  0  0  0
    6.5576   -0.4755    7.3410 C   0  0  0  0  0  0  0  0  0  0  0  0
    6.9360   -1.4441    8.2625 C   0  0  0  0  0  0  0  0  0  0  0  0
    6.6963   -2.7841    7.9835 C   0  0  0  0  0  0  0  0  0  0  0  0
    2.4723   -0.9565   -1.7083 H   0  0  0  0  0  0  0  0  0  0  0  0
    3.9871   -0.0474   -1.5262 H   0  0  0  0  0  0  0  0  0  0  0  0
    2.5115    0.8062   -1.9230 H   0  0  0  0  0  0  0  0  0  0  0  0
    1.4990    0.3097    0.2233 H   0  0  0  0  0  0  0  0  0  0  0  0
    2.4794   -1.9140    0.7091 H   0  0  0  0  0  0  0  0  0  0  0  0
    2.5991   -0.7900    2.0606 H   0  0  0  0  0  0  0  0  0  0  0  0
    4.8012   -1.6072    0.1182 H   0  0  0  0  0  0  0  0  0  0  0  0
    7.1746   -0.6924    1.4536 H   0  0  0  0  0  0  0  0  0  0  0  0
    7.0185    3.6005    1.2523 H   0  0  0  0  0  0  0  0  0  0  0  0
    4.5768    3.4961    0.8544 H   0  0  0  0  0  0  0  0  0  0  0  0
    5.1383   -0.8184    3.5948 H   0  0  0  0  0  0  0  0  0  0  0  0
    4.3454   -4.4726    3.6447 H   0  0  0  0  0  0  0  0  0  0  0  0
    6.0428   -5.2776    7.2572 H   0  0  0  0  0  0  0  0  0  0  0  0
    5.6900   -0.0434    5.4458 H   0  0  0  0  0  0  0  0  0  0  0  0
    6.7135    0.5764    7.5757 H   0  0  0  0  0  0  0  0  0  0  0  0
    7.4051   -1.1590    9.2012 H   0  0  0  0  0  0  0  0  0  0  0  0
    6.9908   -3.5367    8.7148 H   0  0  0  0  0  0  0  0  0  0  0  0
  1 26  1  0  0  0  0
  1 27  1  0  0  0  0
  1 28  1  0  0  0  0
  2  3  1  0  0  0  0
  2 11  1  0  0  0  0
  2  1  1  0  0  0  0
  2 29  1  1  0  0  0
  3  4  1  0  0  0  0
  3 30  1  0  0  0  0
  3 31  1  0  0  0  0
  4  5  1  0  0  0  0
  4 13  1  0  0  0  0
  4 32  1  6  0  0  0
  5  6  1  0  0  0  0
  5 10  2  0  0  0  0
  6  7  2  0  0  0  0
  6 33  1  0  0  0  0
  7  8  1  0  0  0  0
  7 12  1  0  0  0  0
  8  9  2  0  0  0  0
  8 34  1  0  0  0  0
  9 10  1  0  0  0  0
  9 35  1  0  0  0  0
 10 11  1  0  0  0  0
 13 14  2  0  0  0  0
 13 15  1  0  0  0  0
 15 16  1  0  0  0  0
 15 36  1  0  0  0  0
 16 17  1  0  0  0  0
 16 21  2  0  0  0  0
 17 18  2  0  0  0  0
 17 37  1  0  0  0  0
 18 19  1  0  0  0  0
 19 20  2  0  0  0  0
 19 38  1  0  0  0  0
 20 21  1  0  0  0  0
 20 25  1  0  0  0  0
 21 22  1  0  0  0  0
 22 23  2  0  0  0  0
 22 39  1  0  0  0  0
 23 24  1  0  0  0  0
 23 40  1  0  0  0  0
 24 25  2  0  0  0  0
 24 41  1  0  0  0  0
 25 42  1  0  0  0  0
M  END
$$$$
