
 OpenBabel07202414173D

 34 35  0  0  0  0  0  0  0  0999 V2000
    0.8792   -0.4724    0.5219 Cl  0  0  0  0  0  0  0  0  0  0  0  0
    2.6379   -0.7000    0.6064 C   0  0  0  0  0  0  0  0  0  0  0  0
    3.1986   -1.3100   -0.6715 C   0  0  0  0  0  0  0  0  0  0  0  0
    2.4787   -1.7092   -1.5880 O   0  0  0  0  0  0  0  0  0  0  0  0
    4.5902   -1.3832   -0.7676 N   0  0  0  0  0  0  0  0  0  0  0  0
    5.5288   -1.1160    0.3347 C   0  0  0  0  0  0  0  0  0  0  0  0
    6.8410   -0.4653   -0.1590 C   0  0  0  0  0  0  0  0  0  0  0  0
    7.4431   -1.2152   -1.3069 N   0  0  0  0  0  0  0  0  0  0  0  0
    8.3007   -2.6384   -0.9223 S   0  0  0  0  0  0  0  0  0  0  0  0
    7.7571   -3.1931    0.2979 O   0  0  0  0  0  0  0  0  0  0  0  0
    8.4076   -3.4427   -2.1226 O   0  0  0  0  0  0  0  0  0  0  0  0
    9.9421   -2.0460   -0.5511 C   0  0  0  0  0  0  0  0  0  0  0  0
   10.2818   -1.7014    0.7614 C   0  0  0  0  0  0  0  0  0  0  0  0
   11.6066   -1.3764    1.0689 C   0  0  0  0  0  0  0  0  0  0  0  0
   12.5833   -1.4176    0.0726 C   0  0  0  0  0  0  0  0  0  0  0  0
   14.2187   -1.0547    0.4647 Cl  0  0  0  0  0  0  0  0  0  0  0  0
   12.2480   -1.7716   -1.2341 C   0  0  0  0  0  0  0  0  0  0  0  0
   10.9239   -2.0874   -1.5495 C   0  0  0  0  0  0  0  0  0  0  0  0
    6.4404   -1.3548   -2.4145 C   0  0  0  0  0  0  0  0  0  0  0  0
    5.1761   -2.0720   -1.9282 C   0  0  0  0  0  0  0  0  0  0  0  0
    2.8505   -1.3589    1.4521 H   0  0  0  0  0  0  0  0  0  0  0  0
    3.0744    0.2882    0.7700 H   0  0  0  0  0  0  0  0  0  0  0  0
    5.7118   -2.0764    0.8250 H   0  0  0  0  0  0  0  0  0  0  0  0
    5.0771   -0.4686    1.0887 H   0  0  0  0  0  0  0  0  0  0  0  0
    7.5586   -0.3580    0.6586 H   0  0  0  0  0  0  0  0  0  0  0  0
    6.6190    0.5512   -0.5116 H   0  0  0  0  0  0  0  0  0  0  0  0
    9.5358   -1.7120    1.5523 H   0  0  0  0  0  0  0  0  0  0  0  0
   11.8774   -1.1178    2.0899 H   0  0  0  0  0  0  0  0  0  0  0  0
   13.0138   -1.8265   -2.0039 H   0  0  0  0  0  0  0  0  0  0  0  0
   10.6747   -2.3946   -2.5633 H   0  0  0  0  0  0  0  0  0  0  0  0
    6.8807   -1.8625   -3.2777 H   0  0  0  0  0  0  0  0  0  0  0  0
    6.1797   -0.3450   -2.7586 H   0  0  0  0  0  0  0  0  0  0  0  0
    5.4030   -3.0978   -1.6152 H   0  0  0  0  0  0  0  0  0  0  0  0
    4.4572   -2.1331   -2.7513 H   0  0  0  0  0  0  0  0  0  0  0  0
  1  2  1  0  0  0  0
  2  3  1  0  0  0  0
  2 21  1  0  0  0  0
  2 22  1  0  0  0  0
  3  4  2  0  0  0  0
  3  5  1  0  0  0  0
  5  6  1  0  0  0  0
  5 20  1  0  0  0  0
  6  7  1  0  0  0  0
  6 23  1  0  0  0  0
  6 24  1  0  0  0  0
  7  8  1  0  0  0  0
  7 25  1  0  0  0  0
  7 26  1  0  0  0  0
  8  9  1  0  0  0  0
  8 19  1  0  0  0  0
  9 10  2  0  0  0  0
  9 11  2  0  0  0  0
  9 12  1  0  0  0  0
 12 13  1  0  0  0  0
 12 18  2  0  0  0  0
 13 14  2  0  0  0  0
 13 27  1  0  0  0  0
 14 15  1  0  0  0  0
 14 28  1  0  0  0  0
 15 16  1  0  0  0  0
 15 17  2  0  0  0  0
 17 18  1  0  0  0  0
 17 29  1  0  0  0  0
 18 30  1  0  0  0  0
 19 20  1  0  0  0  0
 19 31  1  0  0  0  0
 19 32  1  0  0  0  0
 20 33  1  0  0  0  0
 20 34  1  0  0  0  0
M  END
$$$$
