
 OpenBabel07202414153D

 62 67  0  0  1  0  0  0  0  0999 V2000
    0.0544    0.4212    1.7575 C   0  0  0  0  0  0  0  0  0  0  0  0
    1.4218    0.6985    1.4700 O   0  0  0  0  0  0  0  0  0  0  0  0
    2.3010   -0.0168    2.2349 C   0  0  0  0  0  0  0  0  0  0  0  0
    2.0412   -1.2724    2.7629 C   0  0  0  0  0  0  0  0  0  0  0  0
    3.0219   -1.9432    3.4860 C   0  0  0  0  0  0  0  0  0  0  0  0
    4.2752   -1.3529    3.7020 C   0  0  0  0  0  0  0  0  0  0  0  0
    5.2831   -2.0448    4.3721 C   0  0  0  0  0  0  0  0  0  0  0  0
    6.5279   -1.5767    4.5727 N   0  0  0  0  0  0  0  0  0  0  0  0
    6.7733   -0.3376    4.0970 C   0  0  0  0  0  0  0  0  0  0  0  0
    5.8229    0.4861    3.4668 C   0  0  0  0  0  0  0  0  0  0  0  0
    6.2320    1.8076    3.1874 N   0  0  0  0  0  0  0  0  0  0  0  0
    5.4356    2.9716    3.0406 C   0  0  0  0  0  0  0  0  0  0  0  0
    6.4468    4.1173    2.9241 C   0  0  0  0  0  0  0  0  0  0  0  0
    7.8195    3.4440    2.5837 C   0  0  3  0  0  0  0  0  0  0  0  0
    8.4480    4.0632    1.3149 C   0  0  0  0  0  0  0  0  0  0  0  0
    9.9126    3.7970    1.1587 N   0  0  0  0  0  0  0  0  0  0  0  0
   10.3738    2.1908    0.8255 S   0  0  0  0  0  0  0  0  0  0  0  0
   11.8432    2.2198    0.7517 O   0  0  0  0  0  0  0  0  0  0  0  0
    9.8073    1.3135    1.7946 O   0  0  0  0  0  0  0  0  0  0  0  0
    9.7594    1.9013   -0.8617 C   0  0  0  0  0  0  0  0  0  0  0  0
   10.1219    0.4556   -1.1515 C   0  0  0  0  0  0  0  0  0  0  0  0
   11.5345    0.1650   -1.1159 C   0  0  0  0  0  0  0  0  0  0  0  0
   12.6772   -0.0654   -1.0684 N   0  0  0  0  0  0  0  0  0  0  0  0
    9.1458   -0.5761   -0.6233 C   0  0  0  0  0  0  0  0  0  0  0  0
    9.3259   -0.4573   -2.0988 C   0  0  0  0  0  0  0  0  0  0  0  0
   10.6592    4.4140    2.2929 C   0  0  0  0  0  0  0  0  0  0  0  0
   10.1087    4.0198    3.6473 C   0  0  0  0  0  0  0  0  0  0  0  0
   10.9525    4.1346    4.7671 C   0  0  0  0  0  0  0  0  0  0  0  0
   10.5056    3.7743    6.0365 C   0  0  0  0  0  0  0  0  0  0  0  0
    9.2051    3.3071    6.1998 C   0  0  0  0  0  0  0  0  0  0  0  0
    8.6386    2.8683    7.7550 Cl  0  0  0  0  0  0  0  0  0  0  0  0
    8.3515    3.2162    5.0963 C   0  0  0  0  0  0  0  0  0  0  0  0
    8.7776    3.5659    3.7976 C   0  0  0  0  0  0  0  0  0  0  0  0
    7.3142    2.0055    2.3498 C   0  0  0  0  0  0  0  0  0  0  0  0
    7.5412    1.2200    1.4471 O   0  0  0  0  0  0  0  0  0  0  0  0
    4.5502   -0.0558    3.2113 C   0  0  0  0  0  0  0  0  0  0  0  0
    3.5469    0.5620    2.4343 C   0  0  0  0  0  0  0  0  0  0  0  0
   -0.5613    1.0874    1.1536 H   0  0  0  0  0  0  0  0  0  0  0  0
   -0.1595    0.6134    2.8155 H   0  0  0  0  0  0  0  0  0  0  0  0
   -0.2152   -0.6058    1.4863 H   0  0  0  0  0  0  0  0  0  0  0  0
    1.0983   -1.7753    2.5861 H   0  0  0  0  0  0  0  0  0  0  0  0
    2.8075   -2.9423    3.8521 H   0  0  0  0  0  0  0  0  0  0  0  0
    5.1165   -3.0460    4.7627 H   0  0  0  0  0  0  0  0  0  0  0  0
    7.7903    0.0113    4.2761 H   0  0  0  0  0  0  0  0  0  0  0  0
    4.7383    3.0739    3.8732 H   0  0  0  0  0  0  0  0  0  0  0  0
    4.9001    2.9368    2.0871 H   0  0  0  0  0  0  0  0  0  0  0  0
    6.4691    4.6703    3.8685 H   0  0  0  0  0  0  0  0  0  0  0  0
    6.1157    4.8284    2.1587 H   0  0  0  0  0  0  0  0  0  0  0  0
    8.3501    5.1596    1.3565 H   0  0  0  0  0  0  0  0  0  0  0  0
    7.9311    3.7664    0.3964 H   0  0  0  0  0  0  0  0  0  0  0  0
   10.2826    2.6075   -1.5158 H   0  0  0  0  0  0  0  0  0  0  0  0
    8.6825    2.0862   -0.8752 H   0  0  0  0  0  0  0  0  0  0  0  0
    8.1842   -0.2558   -0.2350 H   0  0  0  0  0  0  0  0  0  0  0  0
    9.5594   -1.4175   -0.0786 H   0  0  0  0  0  0  0  0  0  0  0  0
    8.4919   -0.0856   -2.6790 H   0  0  0  0  0  0  0  0  0  0  0  0
    9.8314   -1.2967   -2.5754 H   0  0  0  0  0  0  0  0  0  0  0  0
   10.5895    5.5050    2.1984 H   0  0  0  0  0  0  0  0  0  0  0  0
   11.7297    4.1830    2.2343 H   0  0  0  0  0  0  0  0  0  0  0  0
   11.9777    4.4907    4.6532 H   0  0  0  0  0  0  0  0  0  0  0  0
   11.1747    3.8476    6.8879 H   0  0  0  0  0  0  0  0  0  0  0  0
    7.3422    2.8569    5.2760 H   0  0  0  0  0  0  0  0  0  0  0  0
    3.7324    1.4896    1.9142 H   0  0  0  0  0  0  0  0  0  0  0  0
  1  2  1  0  0  0  0
  1 38  1  0  0  0  0
  1 39  1  0  0  0  0
  1 40  1  0  0  0  0
  2  3  1  0  0  0  0
  3  4  1  0  0  0  0
  3 37  2  0  0  0  0
  4  5  2  0  0  0  0
  4 41  1  0  0  0  0
  5  6  1  0  0  0  0
  5 42  1  0  0  0  0
  6  7  1  0  0  0  0
  6 36  2  0  0  0  0
  7  8  2  0  0  0  0
  7 43  1  0  0  0  0
  8  9  1  0  0  0  0
  9 10  2  0  0  0  0
  9 44  1  0  0  0  0
 10 11  1  0  0  0  0
 10 36  1  0  0  0  0
 11 12  1  0  0  0  0
 11 34  1  0  0  0  0
 12 13  1  0  0  0  0
 12 45  1  0  0  0  0
 12 46  1  0  0  0  0
 13 14  1  0  0  0  0
 13 47  1  0  0  0  0
 13 48  1  0  0  0  0
 14 15  1  0  0  0  0
 14 33  1  0  0  0  0
 14 34  1  0  0  0  0
 15 16  1  0  0  0  0
 15 49  1  0  0  0  0
 15 50  1  0  0  0  0
 16 17  1  0  0  0  0
 16 26  1  0  0  0  0
 17 18  2  0  0  0  0
 17 19  2  0  0  0  0
 17 20  1  0  0  0  0
 20 21  1  0  0  0  0
 20 51  1  0  0  0  0
 20 52  1  0  0  0  0
 21 22  1  0  0  0  0
 21 24  1  0  0  0  0
 21 25  1  0  0  0  0
 22 23  3  0  0  0  0
 24 25  1  0  0  0  0
 24 53  1  0  0  0  0
 24 54  1  0  0  0  0
 25 55  1  0  0  0  0
 25 56  1  0  0  0  0
 26 27  1  0  0  0  0
 26 57  1  0  0  0  0
 26 58  1  0  0  0  0
 27 28  1  0  0  0  0
 27 33  2  0  0  0  0
 28 29  2  0  0  0  0
 28 59  1  0  0  0  0
 29 30  1  0  0  0  0
 29 60  1  0  0  0  0
 30 31  1  0  0  0  0
 30 32  2  0  0  0  0
 32 33  1  0  0  0  0
 32 61  1  0  0  0  0
 34 35  2  0  0  0  0
 36 37  1  0  0  0  0
 37 62  1  0  0  0  0
M  END
$$$$
