
 OpenBabel07202414173D

 57 60  0  0  1  0  0  0  0  0999 V2000
    0.9861   -0.3840    0.1120 Cl  0  0  0  0  0  0  0  0  0  0  0  0
    2.7140   -0.7866    0.0795 C   0  0  0  0  0  0  0  0  0  0  0  0
    3.2749   -0.7993   -1.3321 C   0  0  0  0  0  0  0  0  0  0  0  0
    2.5691   -0.6547   -2.3315 O   0  0  0  0  0  0  0  0  0  0  0  0
    4.6576   -0.9722   -1.4437 N   0  0  0  0  0  0  0  0  0  0  0  0
    5.5818   -1.2983   -0.3466 C   0  0  0  0  0  0  0  0  0  0  0  0
    6.7680   -0.3179   -0.2372 C   0  0  0  0  0  0  0  0  0  0  0  0
    7.4192   -0.0359   -1.5575 N   0  0  0  0  0  0  0  0  0  0  0  0
    8.4325   -1.2668   -2.1768 S   0  0  0  0  0  0  0  0  0  0  0  0
    7.7444   -2.5346   -2.0985 O   0  0  0  0  0  0  0  0  0  0  0  0
    8.9856   -0.7824   -3.4233 O   0  0  0  0  0  0  0  0  0  0  0  0
    9.8236   -1.4716   -1.1612 C   0  0  0  0  0  0  0  0  0  0  0  0
   10.1005   -2.6471   -0.3943 C   0  0  0  0  0  0  0  0  0  0  0  0
   11.3029   -2.5556    0.2742 C   0  0  0  0  0  0  0  0  0  0  0  0
   12.0904   -1.0651   -0.0241 S   0  0  0  0  0  0  0  0  0  0  0  0
   10.8315   -0.5377   -1.0584 C   0  0  0  0  0  0  0  0  0  0  0  0
    6.3746    0.4328   -2.5690 C   0  0  2  0  0  0  0  0  0  0  0  0
    5.7242    1.7740   -2.1329 C   0  0  0  0  0  0  0  0  0  0  0  0
    4.6126    1.8172   -1.5942 O   0  0  0  0  0  0  0  0  0  0  0  0
    6.4246    2.9516   -2.3372 N   0  0  0  0  0  0  0  0  0  0  0  0
    5.7755    4.2082   -1.9339 C   0  0  0  0  0  0  0  0  0  0  0  0
    6.3566    5.4406   -2.6477 C   0  0  0  0  0  0  0  0  0  0  0  0
    7.8259    5.4295   -2.5553 N   0  0  0  0  0  0  0  0  0  0  0  0
    8.5634    6.5544   -2.2471 C   0  0  0  0  0  0  0  0  0  0  0  0
    8.1030    7.5024   -1.3210 C   0  0  0  0  0  0  0  0  0  0  0  0
    8.8844    8.5991   -0.9383 C   0  0  0  0  0  0  0  0  0  0  0  0
   10.1528    8.7761   -1.4781 C   0  0  0  0  0  0  0  0  0  0  0  0
   10.6289    7.8660   -2.4115 C   0  0  0  0  0  0  0  0  0  0  0  0
    9.8372    6.7778   -2.7926 C   0  0  0  0  0  0  0  0  0  0  0  0
    8.4614    4.2045   -3.0566 C   0  0  0  0  0  0  0  0  0  0  0  0
    7.8913    2.9884   -2.3142 C   0  0  0  0  0  0  0  0  0  0  0  0
    5.2814   -0.6469   -2.7347 C   0  0  0  0  0  0  0  0  0  0  0  0
    2.8344   -1.7740    0.5303 H   0  0  0  0  0  0  0  0  0  0  0  0
    3.2315   -0.0267    0.6721 H   0  0  0  0  0  0  0  0  0  0  0  0
    5.9369   -2.3159   -0.5286 H   0  0  0  0  0  0  0  0  0  0  0  0
    5.0647   -1.3275    0.6147 H   0  0  0  0  0  0  0  0  0  0  0  0
    7.5111   -0.6828    0.4788 H   0  0  0  0  0  0  0  0  0  0  0  0
    6.4144    0.6386    0.1694 H   0  0  0  0  0  0  0  0  0  0  0  0
    9.4670   -3.5261   -0.3540 H   0  0  0  0  0  0  0  0  0  0  0  0
   11.7664   -3.2972    0.9127 H   0  0  0  0  0  0  0  0  0  0  0  0
   10.9058    0.4170   -1.5614 H   0  0  0  0  0  0  0  0  0  0  0  0
    6.8458    0.6095   -3.5428 H   0  0  0  0  0  0  0  0  0  0  0  0
    5.9077    4.3033   -0.8487 H   0  0  0  0  0  0  0  0  0  0  0  0
    4.6997    4.1505   -2.1319 H   0  0  0  0  0  0  0  0  0  0  0  0
    5.8960    6.3425   -2.2340 H   0  0  0  0  0  0  0  0  0  0  0  0
    6.0743    5.4095   -3.7084 H   0  0  0  0  0  0  0  0  0  0  0  0
    7.1404    7.3796   -0.8347 H   0  0  0  0  0  0  0  0  0  0  0  0
    8.5029    9.3025   -0.2031 H   0  0  0  0  0  0  0  0  0  0  0  0
   10.7670    9.6172   -1.1717 H   0  0  0  0  0  0  0  0  0  0  0  0
   11.6163    7.9918   -2.8458 H   0  0  0  0  0  0  0  0  0  0  0  0
   10.2422    6.1085   -3.5456 H   0  0  0  0  0  0  0  0  0  0  0  0
    9.5438    4.1904   -2.8967 H   0  0  0  0  0  0  0  0  0  0  0  0
    8.2730    4.1100   -4.1325 H   0  0  0  0  0  0  0  0  0  0  0  0
    8.1803    3.0282   -1.2553 H   0  0  0  0  0  0  0  0  0  0  0  0
    8.3243    2.0801   -2.7369 H   0  0  0  0  0  0  0  0  0  0  0  0
    5.6932   -1.5751   -3.1412 H   0  0  0  0  0  0  0  0  0  0  0  0
    4.5389   -0.2941   -3.4585 H   0  0  0  0  0  0  0  0  0  0  0  0
  1  2  1  0  0  0  0
  2  3  1  0  0  0  0
  2 33  1  0  0  0  0
  2 34  1  0  0  0  0
  3  4  2  0  0  0  0
  3  5  1  0  0  0  0
  5  6  1  0  0  0  0
  5 32  1  0  0  0  0
  6  7  1  0  0  0  0
  6 35  1  0  0  0  0
  6 36  1  0  0  0  0
  7  8  1  0  0  0  0
  7 37  1  0  0  0  0
  7 38  1  0  0  0  0
  8  9  1  0  0  0  0
  8 17  1  0  0  0  0
  9 10  2  0  0  0  0
  9 11  2  0  0  0  0
  9 12  1  0  0  0  0
 12 13  1  0  0  0  0
 12 16  2  0  0  0  0
 13 14  2  0  0  0  0
 13 39  1  0  0  0  0
 14 15  1  0  0  0  0
 14 40  1  0  0  0  0
 15 16  1  0  0  0  0
 16 41  1  0  0  0  0
 17 32  1  0  0  0  0
 17 18  1  0  0  0  0
 17 42  1  6  0  0  0
 18 19  2  0  0  0  0
 18 20  1  0  0  0  0
 20 21  1  0  0  0  0
 20 31  1  0  0  0  0
 21 22  1  0  0  0  0
 21 43  1  0  0  0  0
 21 44  1  0  0  0  0
 22 23  1  0  0  0  0
 22 45  1  0  0  0  0
 22 46  1  0  0  0  0
 23 24  1  0  0  0  0
 23 30  1  0  0  0  0
 24 25  1  0  0  0  0
 24 29  2  0  0  0  0
 25 26  2  0  0  0  0
 25 47  1  0  0  0  0
 26 27  1  0  0  0  0
 26 48  1  0  0  0  0
 27 28  2  0  0  0  0
 27 49  1  0  0  0  0
 28 29  1  0  0  0  0
 28 50  1  0  0  0  0
 29 51  1  0  0  0  0
 30 31  1  0  0  0  0
 30 52  1  0  0  0  0
 30 53  1  0  0  0  0
 31 54  1  0  0  0  0
 31 55  1  0  0  0  0
 32 56  1  0  0  0  0
 32 57  1  0  0  0  0
M  END
$$$$
