
 OpenBabel07202414163D

 52 56  0  0  0  0  0  0  0  0999 V2000
   -2.1020   -0.2323   -0.1059 Cl  0  0  0  0  0  0  0  0  0  0  0  0
   -0.3856   -0.1170   -0.0604 C   0  0  0  0  0  0  0  0  0  0  0  0
    0.2227    1.1343   -0.0046 C   0  0  0  0  0  0  0  0  0  0  0  0
    1.6183    1.2458    0.0382 C   0  0  0  0  0  0  0  0  0  0  0  0
    2.2520    2.5045    0.1150 N   0  0  0  0  0  0  0  0  0  0  0  0
    1.8682    3.7167   -0.5043 C   0  0  0  0  0  0  0  0  0  0  0  0
    2.2541    4.9317    0.0791 C   0  0  0  0  0  0  0  0  0  0  0  0
    1.9152    6.1465   -0.5209 C   0  0  0  0  0  0  0  0  0  0  0  0
    1.2215    6.1590   -1.7335 C   0  0  0  0  0  0  0  0  0  0  0  0
    0.8937    7.3091   -2.4040 O   0  0  0  0  0  0  0  0  0  0  0  0
    1.6407    8.4272   -1.9124 C   0  0  0  0  0  0  0  0  0  0  0  0
    1.6380    8.4450   -0.3931 C   0  0  0  0  0  0  0  0  0  0  0  0
    2.3076    7.2902    0.1290 O   0  0  0  0  0  0  0  0  0  0  0  0
    0.8268    4.9612   -2.3198 C   0  0  0  0  0  0  0  0  0  0  0  0
    1.1519    3.7477   -1.7091 C   0  0  0  0  0  0  0  0  0  0  0  0
    2.3857    0.0693    0.0535 C   0  0  0  0  0  0  0  0  0  0  0  0
    1.7807   -1.1978   -0.0282 C   0  0  0  0  0  0  0  0  0  0  0  0
    2.6082   -2.4637   -0.0207 C   0  0  0  0  0  0  0  0  0  0  0  0
    3.6216   -2.5944   -1.1447 C   0  0  0  0  0  0  0  0  0  0  0  0
    4.7788   -2.9375   -0.9124 O   0  0  0  0  0  0  0  0  0  0  0  0
    3.1210   -2.3366   -2.4091 N   0  0  0  0  0  0  0  0  0  0  0  0
    3.9206   -2.4467   -3.5740 C   0  0  0  0  0  0  0  0  0  0  0  0
    4.7306   -3.5666   -3.7836 C   0  0  0  0  0  0  0  0  0  0  0  0
    5.4831   -3.7703   -4.8894 N   0  0  0  0  0  0  0  0  0  0  0  0
    5.4527   -2.7953   -5.8188 C   0  0  0  0  0  0  0  0  0  0  0  0
    4.7011   -1.6193   -5.7164 C   0  0  0  0  0  0  0  0  0  0  0  0
    4.7569   -0.6229   -6.7041 C   0  0  0  0  0  0  0  0  0  0  0  0
    4.0380    0.5617   -6.5628 C   0  0  0  0  0  0  0  0  0  0  0  0
    3.2511    0.7609   -5.4363 C   0  0  0  0  0  0  0  0  0  0  0  0
    3.1764   -0.2234   -4.4524 C   0  0  0  0  0  0  0  0  0  0  0  0
    3.8962   -1.4401   -4.5665 C   0  0  0  0  0  0  0  0  0  0  0  0
    0.3829   -1.2783   -0.0778 C   0  0  0  0  0  0  0  0  0  0  0  0
   -0.3955    2.0280    0.0320 H   0  0  0  0  0  0  0  0  0  0  0  0
    3.2655    2.4471    0.1811 H   0  0  0  0  0  0  0  0  0  0  0  0
    2.7972    4.9382    1.0205 H   0  0  0  0  0  0  0  0  0  0  0  0
    1.1731    9.3361   -2.3041 H   0  0  0  0  0  0  0  0  0  0  0  0
    2.6606    8.3681   -2.3123 H   0  0  0  0  0  0  0  0  0  0  0  0
    0.6169    8.4679    0.0066 H   0  0  0  0  0  0  0  0  0  0  0  0
    2.1679    9.3301   -0.0254 H   0  0  0  0  0  0  0  0  0  0  0  0
    0.2840    4.9689   -3.2605 H   0  0  0  0  0  0  0  0  0  0  0  0
    0.8622    2.8244   -2.2025 H   0  0  0  0  0  0  0  0  0  0  0  0
    3.4707    0.1382    0.1288 H   0  0  0  0  0  0  0  0  0  0  0  0
    1.9624   -3.3486   -0.0743 H   0  0  0  0  0  0  0  0  0  0  0  0
    3.1431   -2.5187    0.9350 H   0  0  0  0  0  0  0  0  0  0  0  0
    2.3092   -1.7351   -2.4613 H   0  0  0  0  0  0  0  0  0  0  0  0
    4.7689   -4.3775   -3.0634 H   0  0  0  0  0  0  0  0  0  0  0  0
    6.0862   -2.9816   -6.6829 H   0  0  0  0  0  0  0  0  0  0  0  0
    5.3844   -0.7550   -7.5872 H   0  0  0  0  0  0  0  0  0  0  0  0
    4.1031    1.3341   -7.3250 H   0  0  0  0  0  0  0  0  0  0  0  0
    2.7047    1.6945   -5.3100 H   0  0  0  0  0  0  0  0  0  0  0  0
    2.5764   -0.0085   -3.5734 H   0  0  0  0  0  0  0  0  0  0  0  0
   -0.1133   -2.2463   -0.1114 H   0  0  0  0  0  0  0  0  0  0  0  0
  1  2  1  0  0  0  0
  2  3  2  0  0  0  0
  2 32  1  0  0  0  0
  3  4  1  0  0  0  0
  3 33  1  0  0  0  0
  4  5  1  0  0  0  0
  4 16  2  0  0  0  0
  5  6  1  0  0  0  0
  5 34  1  0  0  0  0
  6  7  2  0  0  0  0
  6 15  1  0  0  0  0
  7  8  1  0  0  0  0
  7 35  1  0  0  0  0
  8  9  2  0  0  0  0
  8 13  1  0  0  0  0
  9 10  1  0  0  0  0
  9 14  1  0  0  0  0
 10 11  1  0  0  0  0
 11 12  1  0  0  0  0
 11 36  1  0  0  0  0
 11 37  1  0  0  0  0
 12 13  1  0  0  0  0
 12 38  1  0  0  0  0
 12 39  1  0  0  0  0
 14 15  2  0  0  0  0
 14 40  1  0  0  0  0
 15 41  1  0  0  0  0
 16 17  1  0  0  0  0
 16 42  1  0  0  0  0
 17 18  1  0  0  0  0
 17 32  2  0  0  0  0
 18 19  1  0  0  0  0
 18 43  1  0  0  0  0
 18 44  1  0  0  0  0
 19 20  2  0  0  0  0
 19 21  1  0  0  0  0
 21 22  1  0  0  0  0
 21 45  1  0  0  0  0
 22 23  2  0  0  0  0
 22 31  1  0  0  0  0
 23 24  1  0  0  0  0
 23 46  1  0  0  0  0
 24 25  2  0  0  0  0
 25 26  1  0  0  0  0
 25 47  1  0  0  0  0
 26 27  2  0  0  0  0
 26 31  1  0  0  0  0
 27 28  1  0  0  0  0
 27 48  1  0  0  0  0
 28 29  2  0  0  0  0
 28 49  1  0  0  0  0
 29 30  1  0  0  0  0
 29 50  1  0  0  0  0
 30 31  2  0  0  0  0
 30 51  1  0  0  0  0
 32 52  1  0  0  0  0
M  END
$$$$
