
 OpenBabel07202414163D

 40 42  0  0  1  0  0  0  0  0999 V2000
   -4.2957   -1.1046   -0.3127 C   0  0  0  0  0  0  0  0  0  0  0  0
   -2.9214   -0.9501   -0.9023 C   0  0  0  0  0  0  0  0  0  0  0  0
   -2.2885   -2.1073   -1.3945 C   0  0  0  0  0  0  0  0  0  0  0  0
   -1.0234   -2.0030   -1.9465 C   0  0  0  0  0  0  0  0  0  0  0  0
   -0.3540   -0.8442   -2.0512 N   0  0  0  0  0  0  0  0  0  0  0  0
   -0.9787    0.2659   -1.5806 C   0  0  0  0  0  0  0  0  0  0  0  0
   -2.2510    0.2812   -1.0028 C   0  0  0  0  0  0  0  0  0  0  0  0
   -2.8813    1.4679   -0.5451 N   0  0  0  0  0  0  0  0  0  0  0  0
   -2.2718    2.6924   -0.3418 C   0  0  0  0  0  0  0  0  0  0  0  0
   -1.0646    2.8999   -0.4636 O   0  0  0  0  0  0  0  0  0  0  0  0
   -3.1639    3.8420    0.1116 C   0  0  0  0  0  0  0  0  0  0  0  0
   -4.6544    3.5972    0.1557 C   0  0  0  0  0  0  0  0  0  0  0  0
   -5.4375    3.8536   -0.9772 C   0  0  0  0  0  0  0  0  0  0  0  0
   -6.8109    3.6335   -0.9400 C   0  0  0  0  0  0  0  0  0  0  0  0
   -7.7647    3.9642   -2.3330 Cl  0  0  0  0  0  0  0  0  0  0  0  0
   -7.4197    3.1439    0.2138 C   0  0  0  0  0  0  0  0  0  0  0  0
   -6.6514    2.8689    1.3452 C   0  0  0  0  0  0  0  0  0  0  0  0
   -7.3562    2.4028    2.4296 O   0  0  0  0  0  0  0  0  0  0  0  0
   -6.6462    1.7258    3.4803 C   0  0  3  0  0  0  0  0  0  0  0  0
   -6.2129    0.2719    3.2189 C   0  0  0  0  0  0  0  0  0  0  0  0
   -7.1019   -0.0753    4.4100 C   0  0  0  0  0  0  0  0  0  0  0  0
   -7.4834   -1.0787    4.9609 O   0  0  0  0  0  0  0  0  0  0  0  0
   -7.4760    1.2173    4.5785 N   0  0  0  0  0  0  0  0  0  0  0  0
   -5.2716    3.1053    1.3216 C   0  0  0  0  0  0  0  0  0  0  0  0
   -4.4714   -2.1369    0.0123 H   0  0  0  0  0  0  0  0  0  0  0  0
   -5.0572   -0.8427   -1.0529 H   0  0  0  0  0  0  0  0  0  0  0  0
   -4.4191   -0.4798    0.5768 H   0  0  0  0  0  0  0  0  0  0  0  0
   -2.7696   -3.0781   -1.3466 H   0  0  0  0  0  0  0  0  0  0  0  0
   -0.5032   -2.8775   -2.3299 H   0  0  0  0  0  0  0  0  0  0  0  0
   -0.3952    1.1694   -1.7287 H   0  0  0  0  0  0  0  0  0  0  0  0
   -3.8583    1.3859   -0.3019 H   0  0  0  0  0  0  0  0  0  0  0  0
   -2.9665    4.6844   -0.5647 H   0  0  0  0  0  0  0  0  0  0  0  0
   -2.8190    4.1581    1.1042 H   0  0  0  0  0  0  0  0  0  0  0  0
   -4.9789    4.2419   -1.8855 H   0  0  0  0  0  0  0  0  0  0  0  0
   -8.4929    2.9778    0.2386 H   0  0  0  0  0  0  0  0  0  0  0  0
   -5.8648    2.3590    3.9199 H   0  0  0  0  0  0  0  0  0  0  0  0
   -5.1507    0.0603    3.3531 H   0  0  0  0  0  0  0  0  0  0  0  0
   -6.5757   -0.1710    2.2860 H   0  0  0  0  0  0  0  0  0  0  0  0
   -8.4532    1.3994    4.7580 H   0  0  0  0  0  0  0  0  0  0  0  0
   -4.6573    2.9408    2.2018 H   0  0  0  0  0  0  0  0  0  0  0  0
  1  2  1  0  0  0  0
  1 25  1  0  0  0  0
  1 26  1  0  0  0  0
  1 27  1  0  0  0  0
  2  3  1  0  0  0  0
  2  7  2  0  0  0  0
  3  4  2  0  0  0  0
  3 28  1  0  0  0  0
  4  5  1  0  0  0  0
  4 29  1  0  0  0  0
  5  6  2  0  0  0  0
  6  7  1  0  0  0  0
  6 30  1  0  0  0  0
  7  8  1  0  0  0  0
  8  9  1  0  0  0  0
  8 31  1  0  0  0  0
  9 10  2  0  0  0  0
  9 11  1  0  0  0  0
 11 12  1  0  0  0  0
 11 32  1  0  0  0  0
 11 33  1  0  0  0  0
 12 13  1  0  0  0  0
 12 24  2  0  0  0  0
 13 14  2  0  0  0  0
 13 34  1  0  0  0  0
 14 15  1  0  0  0  0
 14 16  1  0  0  0  0
 16 17  2  0  0  0  0
 16 35  1  0  0  0  0
 17 18  1  0  0  0  0
 17 24  1  0  0  0  0
 18 19  1  0  0  0  0
 19 20  1  0  0  0  0
 19 23  1  0  0  0  0
 19 36  1  0  0  0  0
 20 21  1  0  0  0  0
 20 37  1  0  0  0  0
 20 38  1  0  0  0  0
 21 22  2  0  0  0  0
 21 23  1  0  0  0  0
 23 39  1  0  0  0  0
 24 40  1  0  0  0  0
M  END
$$$$
