
 OpenBabel07202414163D

 41 43  0  0  0  0  0  0  0  0999 V2000
   -5.2060    2.1916   -4.4236 C   0  0  0  0  0  0  0  0  0  0  0  0
   -3.8909    2.8453   -4.7485 C   0  0  0  0  0  0  0  0  0  0  0  0
   -3.4724    2.8354   -6.0910 C   0  0  0  0  0  0  0  0  0  0  0  0
   -2.2752    3.4381   -6.4374 C   0  0  0  0  0  0  0  0  0  0  0  0
   -1.4822    4.0666   -5.5559 N   0  0  0  0  0  0  0  0  0  0  0  0
   -1.8968    4.0712   -4.2634 C   0  0  0  0  0  0  0  0  0  0  0  0
   -3.0711    3.4755   -3.7921 C   0  0  0  0  0  0  0  0  0  0  0  0
   -3.4494    3.5046   -2.4224 N   0  0  0  0  0  0  0  0  0  0  0  0
   -2.6255    3.8462   -1.3630 C   0  0  0  0  0  0  0  0  0  0  0  0
   -1.4210    4.0923   -1.4642 O   0  0  0  0  0  0  0  0  0  0  0  0
   -3.2457    3.8915    0.0296 C   0  0  0  0  0  0  0  0  0  0  0  0
   -4.7328    3.6688    0.1205 C   0  0  0  0  0  0  0  0  0  0  0  0
   -5.6256    4.7435    0.0485 C   0  0  0  0  0  0  0  0  0  0  0  0
   -6.9982    4.5011    0.0406 C   0  0  0  0  0  0  0  0  0  0  0  0
   -8.0915    5.8252   -0.0577 Cl  0  0  0  0  0  0  0  0  0  0  0  0
   -7.4883    3.1970    0.0948 C   0  0  0  0  0  0  0  0  0  0  0  0
   -6.6071    2.1204    0.1987 C   0  0  0  0  0  0  0  0  0  0  0  0
   -7.1795    0.8753    0.2047 O   0  0  0  0  0  0  0  0  0  0  0  0
   -6.4728   -0.1543    0.9134 C   0  0  0  0  0  0  0  0  0  0  0  0
   -5.5553   -0.8560   -0.0226 C   0  0  0  0  0  0  0  0  0  0  0  0
   -4.2503   -1.0007    0.0755 N   0  0  0  0  0  0  0  0  0  0  0  0
   -3.9198   -1.6778   -1.0639 C   0  0  0  0  0  0  0  0  0  0  0  0
   -4.9482   -1.9652   -1.8659 N   0  0  0  0  0  0  0  0  0  0  0  0
   -5.9781   -1.4392   -1.1831 N   0  0  0  0  0  0  0  0  0  0  0  0
   -5.2331    2.3615    0.2139 C   0  0  0  0  0  0  0  0  0  0  0  0
   -5.5265    1.5277   -5.2353 H   0  0  0  0  0  0  0  0  0  0  0  0
   -5.9819    2.9515   -4.2873 H   0  0  0  0  0  0  0  0  0  0  0  0
   -5.1336    1.5710   -3.5259 H   0  0  0  0  0  0  0  0  0  0  0  0
   -4.0642    2.3546   -6.8640 H   0  0  0  0  0  0  0  0  0  0  0  0
   -1.9156    3.4311   -7.4620 H   0  0  0  0  0  0  0  0  0  0  0  0
   -1.2258    4.6215   -3.6128 H   0  0  0  0  0  0  0  0  0  0  0  0
   -4.3715    3.1515   -2.2060 H   0  0  0  0  0  0  0  0  0  0  0  0
   -3.0021    4.8702    0.4631 H   0  0  0  0  0  0  0  0  0  0  0  0
   -2.7297    3.1433    0.6450 H   0  0  0  0  0  0  0  0  0  0  0  0
   -5.2530    5.7647   -0.0119 H   0  0  0  0  0  0  0  0  0  0  0  0
   -8.5605    3.0176    0.0656 H   0  0  0  0  0  0  0  0  0  0  0  0
   -7.2238   -0.8626    1.2799 H   0  0  0  0  0  0  0  0  0  0  0  0
   -5.9495    0.2393    1.7929 H   0  0  0  0  0  0  0  0  0  0  0  0
   -2.9064   -1.9621   -1.3150 H   0  0  0  0  0  0  0  0  0  0  0  0
   -6.9165   -1.4972   -1.5640 H   0  0  0  0  0  0  0  0  0  0  0  0
   -4.5166    1.5457    0.2649 H   0  0  0  0  0  0  0  0  0  0  0  0
  1  2  1  0  0  0  0
  1 26  1  0  0  0  0
  1 27  1  0  0  0  0
  1 28  1  0  0  0  0
  2  3  1  0  0  0  0
  2  7  2  0  0  0  0
  3  4  2  0  0  0  0
  3 29  1  0  0  0  0
  4  5  1  0  0  0  0
  4 30  1  0  0  0  0
  5  6  2  0  0  0  0
  6  7  1  0  0  0  0
  6 31  1  0  0  0  0
  7  8  1  0  0  0  0
  8  9  1  0  0  0  0
  8 32  1  0  0  0  0
  9 10  2  0  0  0  0
  9 11  1  0  0  0  0
 11 12  1  0  0  0  0
 11 33  1  0  0  0  0
 11 34  1  0  0  0  0
 12 13  1  0  0  0  0
 12 25  2  0  0  0  0
 13 14  2  0  0  0  0
 13 35  1  0  0  0  0
 14 15  1  0  0  0  0
 14 16  1  0  0  0  0
 16 17  2  0  0  0  0
 16 36  1  0  0  0  0
 17 18  1  0  0  0  0
 17 25  1  0  0  0  0
 18 19  1  0  0  0  0
 19 20  1  0  0  0  0
 19 37  1  0  0  0  0
 19 38  1  0  0  0  0
 20 21  2  0  0  0  0
 20 24  1  0  0  0  0
 21 22  1  0  0  0  0
 22 23  2  0  0  0  0
 22 39  1  0  0  0  0
 23 24  1  0  0  0  0
 24 40  1  0  0  0  0
 25 41  1  0  0  0  0
M  END
$$$$
