
 OpenBabel07202414163D

 47 50  0  0  0  0  0  0  0  0999 V2000
   -2.1140   -0.2539    0.1055 Cl  0  0  0  0  0  0  0  0  0  0  0  0
   -0.3967   -0.1322    0.0618 C   0  0  0  0  0  0  0  0  0  0  0  0
    0.2022    1.1269    0.0203 C   0  0  0  0  0  0  0  0  0  0  0  0
    1.5956    1.2329   -0.0140 C   0  0  0  0  0  0  0  0  0  0  0  0
    2.2771    2.5797   -0.0810 C   0  0  0  0  0  0  0  0  0  0  0  0
    3.1033    2.7600   -1.3507 C   0  0  0  0  0  0  0  0  0  0  0  0
    3.9145    1.9196   -1.7340 O   0  0  0  0  0  0  0  0  0  0  0  0
    2.8997    3.9746   -1.9845 N   0  0  0  0  0  0  0  0  0  0  0  0
    3.5781    4.3124   -3.1821 C   0  0  0  0  0  0  0  0  0  0  0  0
    3.6843    3.3912   -4.2274 C   0  0  0  0  0  0  0  0  0  0  0  0
    4.2784    3.6460   -5.4141 N   0  0  0  0  0  0  0  0  0  0  0  0
    4.8252    4.8722   -5.5544 C   0  0  0  0  0  0  0  0  0  0  0  0
    4.8038    5.8704   -4.5769 C   0  0  0  0  0  0  0  0  0  0  0  0
    5.4338    7.1110   -4.7803 C   0  0  0  0  0  0  0  0  0  0  0  0
    5.4409    8.0783   -3.7773 C   0  0  0  0  0  0  0  0  0  0  0  0
    4.8193    7.8190   -2.5625 C   0  0  0  0  0  0  0  0  0  0  0  0
    4.1816    6.5948   -2.3523 C   0  0  0  0  0  0  0  0  0  0  0  0
    4.1517    5.5939   -3.3535 C   0  0  0  0  0  0  0  0  0  0  0  0
    2.3617    0.0553    0.0191 C   0  0  0  0  0  0  0  0  0  0  0  0
    1.7704   -1.2149    0.0381 C   0  0  0  0  0  0  0  0  0  0  0  0
    2.5474   -2.3900    0.0937 N   0  0  0  0  0  0  0  0  0  0  0  0
    3.8121   -2.6342   -0.4822 C   0  0  0  0  0  0  0  0  0  0  0  0
    4.6591   -3.5678    0.1295 C   0  0  0  0  0  0  0  0  0  0  0  0
    5.9125   -3.8669   -0.4197 C   0  0  0  0  0  0  0  0  0  0  0  0
    6.9942   -5.1283    0.5029 Br  0  0  0  0  0  0  0  0  0  0  0  0
    6.3311   -3.2459   -1.6012 C   0  0  0  0  0  0  0  0  0  0  0  0
    7.6004   -3.5321   -2.2085 C   0  0  0  0  0  0  0  0  0  0  0  0
    8.6149   -3.7557   -2.7187 N   0  0  0  0  0  0  0  0  0  0  0  0
    5.4856   -2.3192   -2.2186 C   0  0  0  0  0  0  0  0  0  0  0  0
    4.2374   -2.0167   -1.6630 C   0  0  0  0  0  0  0  0  0  0  0  0
    0.3757   -1.2946    0.0703 C   0  0  0  0  0  0  0  0  0  0  0  0
   -0.4210    2.0177    0.0203 H   0  0  0  0  0  0  0  0  0  0  0  0
    2.9452    2.6952    0.7812 H   0  0  0  0  0  0  0  0  0  0  0  0
    1.5306    3.3797   -0.0046 H   0  0  0  0  0  0  0  0  0  0  0  0
    2.5433    4.7347   -1.4225 H   0  0  0  0  0  0  0  0  0  0  0  0
    3.2485    2.3981   -4.1524 H   0  0  0  0  0  0  0  0  0  0  0  0
    5.3163    5.0321   -6.5115 H   0  0  0  0  0  0  0  0  0  0  0  0
    5.9425    7.3229   -5.7187 H   0  0  0  0  0  0  0  0  0  0  0  0
    5.9450    9.0275   -3.9390 H   0  0  0  0  0  0  0  0  0  0  0  0
    4.8430    8.5613   -1.7686 H   0  0  0  0  0  0  0  0  0  0  0  0
    3.7429    6.4247   -1.3736 H   0  0  0  0  0  0  0  0  0  0  0  0
    3.4489    0.1337    0.0273 H   0  0  0  0  0  0  0  0  0  0  0  0
    1.9908   -3.2401    0.1178 H   0  0  0  0  0  0  0  0  0  0  0  0
    4.3430   -4.0430    1.0560 H   0  0  0  0  0  0  0  0  0  0  0  0
    5.7860   -1.8217   -3.1401 H   0  0  0  0  0  0  0  0  0  0  0  0
    3.5980   -1.3009   -2.1758 H   0  0  0  0  0  0  0  0  0  0  0  0
   -0.1166   -2.2623    0.0971 H   0  0  0  0  0  0  0  0  0  0  0  0
  1  2  1  0  0  0  0
  2  3  2  0  0  0  0
  2 31  1  0  0  0  0
  3  4  1  0  0  0  0
  3 32  1  0  0  0  0
  4  5  1  0  0  0  0
  4 19  2  0  0  0  0
  5  6  1  0  0  0  0
  5 33  1  0  0  0  0
  5 34  1  0  0  0  0
  6  7  2  0  0  0  0
  6  8  1  0  0  0  0
  8  9  1  0  0  0  0
  8 35  1  0  0  0  0
  9 10  2  0  0  0  0
  9 18  1  0  0  0  0
 10 11  1  0  0  0  0
 10 36  1  0  0  0  0
 11 12  2  0  0  0  0
 12 13  1  0  0  0  0
 12 37  1  0  0  0  0
 13 14  2  0  0  0  0
 13 18  1  0  0  0  0
 14 15  1  0  0  0  0
 14 38  1  0  0  0  0
 15 16  2  0  0  0  0
 15 39  1  0  0  0  0
 16 17  1  0  0  0  0
 16 40  1  0  0  0  0
 17 18  2  0  0  0  0
 17 41  1  0  0  0  0
 19 20  1  0  0  0  0
 19 42  1  0  0  0  0
 20 21  1  0  0  0  0
 20 31  2  0  0  0  0
 21 22  1  0  0  0  0
 21 43  1  0  0  0  0
 22 23  2  0  0  0  0
 22 30  1  0  0  0  0
 23 24  1  0  0  0  0
 23 44  1  0  0  0  0
 24 25  1  0  0  0  0
 24 26  2  0  0  0  0
 26 27  1  0  0  0  0
 26 29  1  0  0  0  0
 27 28  3  0  0  0  0
 29 30  2  0  0  0  0
 29 45  1  0  0  0  0
 30 46  1  0  0  0  0
 31 47  1  0  0  0  0
M  END
$$$$
