
 OpenBabel07202414173D

 34 35  0  0  0  0  0  0  0  0999 V2000
    0.9978   -0.1993    0.3029 Cl  0  0  0  0  0  0  0  0  0  0  0  0
    2.7482   -0.4331    0.4745 C   0  0  0  0  0  0  0  0  0  0  0  0
    3.2957   -1.4357   -0.5332 C   0  0  0  0  0  0  0  0  0  0  0  0
    2.5752   -2.0543   -1.3157 O   0  0  0  0  0  0  0  0  0  0  0  0
    4.6779   -1.6125   -0.5365 N   0  0  0  0  0  0  0  0  0  0  0  0
    5.6220   -1.0099    0.4120 C   0  0  0  0  0  0  0  0  0  0  0  0
    6.7994   -0.3576   -0.3348 C   0  0  0  0  0  0  0  0  0  0  0  0
    7.5098   -1.2681   -1.2607 N   0  0  0  0  0  0  0  0  0  0  0  0
    8.2487   -2.3468   -0.5797 C   0  0  0  0  0  0  0  0  0  0  0  0
    9.3024   -1.8675    0.3973 C   0  0  0  0  0  0  0  0  0  0  0  0
    9.2024   -2.1855    1.7618 C   0  0  0  0  0  0  0  0  0  0  0  0
   10.1729   -1.7543    2.6679 C   0  0  0  0  0  0  0  0  0  0  0  0
   11.2628   -1.0078    2.2175 C   0  0  0  0  0  0  0  0  0  0  0  0
   11.3775   -0.7029    0.8640 C   0  0  0  0  0  0  0  0  0  0  0  0
   12.7387    0.1906    0.3051 Cl  0  0  0  0  0  0  0  0  0  0  0  0
   10.4071   -1.1255   -0.0468 C   0  0  0  0  0  0  0  0  0  0  0  0
    6.5133   -1.8415   -2.2037 C   0  0  0  0  0  0  0  0  0  0  0  0
    5.2887   -2.5041   -1.5295 C   0  0  0  0  0  0  0  0  0  0  0  0
    2.9375   -0.7886    1.4906 H   0  0  0  0  0  0  0  0  0  0  0  0
    3.2175    0.5413    0.3147 H   0  0  0  0  0  0  0  0  0  0  0  0
    5.9724   -1.8094    1.0743 H   0  0  0  0  0  0  0  0  0  0  0  0
    5.1396   -0.2645    1.0467 H   0  0  0  0  0  0  0  0  0  0  0  0
    7.4907    0.1041    0.3784 H   0  0  0  0  0  0  0  0  0  0  0  0
    6.4039    0.4779   -0.9295 H   0  0  0  0  0  0  0  0  0  0  0  0
    8.7692   -2.9525   -1.3348 H   0  0  0  0  0  0  0  0  0  0  0  0
    7.5721   -3.0366   -0.0624 H   0  0  0  0  0  0  0  0  0  0  0  0
    8.3702   -2.7790    2.1294 H   0  0  0  0  0  0  0  0  0  0  0  0
   10.0866   -2.0055    3.7236 H   0  0  0  0  0  0  0  0  0  0  0  0
   12.0174   -0.6740    2.9239 H   0  0  0  0  0  0  0  0  0  0  0  0
   10.5009   -0.8759   -1.1015 H   0  0  0  0  0  0  0  0  0  0  0  0
    6.9974   -2.5532   -2.8827 H   0  0  0  0  0  0  0  0  0  0  0  0
    6.1502   -1.0237   -2.8413 H   0  0  0  0  0  0  0  0  0  0  0  0
    5.5816   -3.4222   -1.0062 H   0  0  0  0  0  0  0  0  0  0  0  0
    4.5661   -2.7925   -2.2995 H   0  0  0  0  0  0  0  0  0  0  0  0
  1  2  1  0  0  0  0
  2  3  1  0  0  0  0
  2 19  1  0  0  0  0
  2 20  1  0  0  0  0
  3  4  2  0  0  0  0
  3  5  1  0  0  0  0
  5  6  1  0  0  0  0
  5 18  1  0  0  0  0
  6  7  1  0  0  0  0
  6 21  1  0  0  0  0
  6 22  1  0  0  0  0
  7  8  1  0  0  0  0
  7 23  1  0  0  0  0
  7 24  1  0  0  0  0
  8  9  1  0  0  0  0
  8 17  1  0  0  0  0
  9 10  1  0  0  0  0
  9 25  1  0  0  0  0
  9 26  1  0  0  0  0
 10 11  1  0  0  0  0
 10 16  2  0  0  0  0
 11 12  2  0  0  0  0
 11 27  1  0  0  0  0
 12 13  1  0  0  0  0
 12 28  1  0  0  0  0
 13 14  2  0  0  0  0
 13 29  1  0  0  0  0
 14 15  1  0  0  0  0
 14 16  1  0  0  0  0
 16 30  1  0  0  0  0
 17 18  1  0  0  0  0
 17 31  1  0  0  0  0
 17 32  1  0  0  0  0
 18 33  1  0  0  0  0
 18 34  1  0  0  0  0
M  END
$$$$
