
 OpenBabel07202414153D

 66 71  0  0  1  0  0  0  0  0999 V2000
    2.7973   -0.4252    1.2321 C   0  0  0  0  0  0  0  0  0  0  0  0
    2.5060    0.2104   -0.1129 C   0  0  1  0  0  0  0  0  0  0  0  0
    2.8979    1.6630   -0.0260 C   0  0  0  0  0  0  0  0  0  0  0  0
    3.5734    2.0498   -1.2320 N   0  0  0  0  0  0  0  0  0  0  0  0
    4.1608    3.3707   -1.2283 C   0  0  0  0  0  0  0  0  0  0  0  0
    5.4733    3.5871   -1.6530 C   0  0  0  0  0  0  0  0  0  0  0  0
    6.2235    4.6551   -1.2905 N   0  0  0  0  0  0  0  0  0  0  0  0
    5.6235    5.6078   -0.5424 C   0  0  0  0  0  0  0  0  0  0  0  0
    4.2675    5.6291   -0.2348 C   0  0  0  0  0  0  0  0  0  0  0  0
    3.6842    6.7478    0.4027 C   0  0  0  0  0  0  0  0  0  0  0  0
    2.3371    6.7603    0.7492 C   0  0  0  0  0  0  0  0  0  0  0  0
    1.5523    5.6672    0.4303 C   0  0  0  0  0  0  0  0  0  0  0  0
    2.1125    4.5949   -0.2729 C   0  0  0  0  0  0  0  0  0  0  0  0
    3.5010    4.4965   -0.5862 C   0  0  0  0  0  0  0  0  0  0  0  0
    4.0164    0.8882   -1.9117 C   0  0  0  0  0  0  0  0  0  0  0  0
    4.8539    0.8306   -2.7933 O   0  0  0  0  0  0  0  0  0  0  0  0
    3.1773   -0.3352   -1.4022 C   0  0  1  0  0  0  0  0  0  0  0  0
    4.0705   -1.5831   -1.1861 C   0  0  0  0  0  0  0  0  0  0  0  0
    3.2750   -2.7790   -0.8567 N   0  0  0  0  0  0  0  0  0  0  0  0
    3.4847   -3.5336    0.3857 C   0  0  0  0  0  0  0  0  0  0  0  0
    4.4020   -4.7477    0.4190 C   0  0  0  0  0  0  0  0  0  0  0  0
    4.8585   -5.1486    1.4919 O   0  0  0  0  0  0  0  0  0  0  0  0
    4.6039   -5.4117   -0.7569 N   0  0  0  0  0  0  0  0  0  0  0  0
    5.3762   -6.6310   -0.7651 C   0  0  0  0  0  0  0  0  0  0  0  0
    6.0211   -6.8450   -2.0927 C   0  0  0  0  0  0  0  0  0  0  0  0
    7.3102   -7.3880   -2.3167 C   0  0  0  0  0  0  0  0  0  0  0  0
    7.4569   -7.4122   -3.6812 C   0  0  0  0  0  0  0  0  0  0  0  0
    6.3032   -6.8955   -4.1906 N   0  0  0  0  0  0  0  0  0  0  0  0
    5.9870   -6.7064   -5.5846 C   0  0  0  0  0  0  0  0  0  0  0  0
    5.4037   -6.5513   -3.2492 N   0  0  0  0  0  0  0  0  0  0  0  0
    2.2124   -3.1388   -1.6629 C   0  0  0  0  0  0  0  0  0  0  0  0
    1.6880   -4.2501   -1.5990 O   0  0  0  0  0  0  0  0  0  0  0  0
    1.6403   -2.0675   -2.5221 C   0  0  0  0  0  0  0  0  0  0  0  0
    0.5445   -2.4134   -3.3300 C   0  0  0  0  0  0  0  0  0  0  0  0
   -0.1922   -1.4265   -3.9755 C   0  0  0  0  0  0  0  0  0  0  0  0
    0.1720   -0.0919   -3.8283 C   0  0  0  0  0  0  0  0  0  0  0  0
    1.2906    0.2604   -3.0634 C   0  0  0  0  0  0  0  0  0  0  0  0
    2.0521   -0.7179   -2.3937 C   0  0  0  0  0  0  0  0  0  0  0  0
    2.3890    0.1978    2.0363 H   0  0  0  0  0  0  0  0  0  0  0  0
    3.8713   -0.5248    1.4180 H   0  0  0  0  0  0  0  0  0  0  0  0
    2.3008   -1.3907    1.3196 H   0  0  0  0  0  0  0  0  0  0  0  0
    1.4112    0.1714   -0.2300 H   0  0  0  0  0  0  0  0  0  0  0  0
    3.5872    1.8505    0.8077 H   0  0  0  0  0  0  0  0  0  0  0  0
    1.9829    2.2141    0.1490 H   0  0  0  0  0  0  0  0  0  0  0  0
    6.0151    2.8647   -2.2533 H   0  0  0  0  0  0  0  0  0  0  0  0
    6.2908    6.3858   -0.1744 H   0  0  0  0  0  0  0  0  0  0  0  0
    4.2781    7.6367    0.6112 H   0  0  0  0  0  0  0  0  0  0  0  0
    1.8943    7.6274    1.2341 H   0  0  0  0  0  0  0  0  0  0  0  0
    0.4975    5.6518    0.6968 H   0  0  0  0  0  0  0  0  0  0  0  0
    1.4128    3.8387   -0.6162 H   0  0  0  0  0  0  0  0  0  0  0  0
    4.8362   -1.4214   -0.4205 H   0  0  0  0  0  0  0  0  0  0  0  0
    4.6091   -1.8298   -2.1118 H   0  0  0  0  0  0  0  0  0  0  0  0
    2.5048   -3.8887    0.7336 H   0  0  0  0  0  0  0  0  0  0  0  0
    3.8678   -2.8496    1.1457 H   0  0  0  0  0  0  0  0  0  0  0  0
    3.9610   -5.2597   -1.5302 H   0  0  0  0  0  0  0  0  0  0  0  0
    4.7107   -7.4655   -0.5202 H   0  0  0  0  0  0  0  0  0  0  0  0
    6.1476   -6.5750    0.0121 H   0  0  0  0  0  0  0  0  0  0  0  0
    8.0253   -7.7189   -1.5768 H   0  0  0  0  0  0  0  0  0  0  0  0
    8.2680   -7.7458   -4.3125 H   0  0  0  0  0  0  0  0  0  0  0  0
    6.8169   -7.0687   -6.1965 H   0  0  0  0  0  0  0  0  0  0  0  0
    5.8317   -5.6391   -5.7616 H   0  0  0  0  0  0  0  0  0  0  0  0
    5.0811   -7.2736   -5.8129 H   0  0  0  0  0  0  0  0  0  0  0  0
    0.2258   -3.4514   -3.4055 H   0  0  0  0  0  0  0  0  0  0  0  0
   -1.0689   -1.6976   -4.5585 H   0  0  0  0  0  0  0  0  0  0  0  0
   -0.4328    0.6833   -4.2941 H   0  0  0  0  0  0  0  0  0  0  0  0
    1.5179    1.3181   -2.9584 H   0  0  0  0  0  0  0  0  0  0  0  0
  1 39  1  0  0  0  0
  1 40  1  0  0  0  0
  1 41  1  0  0  0  0
  2  3  1  0  0  0  0
  2 17  1  0  0  0  0
  2  1  1  0  0  0  0
  2 42  1  6  0  0  0
  3  4  1  0  0  0  0
  3 43  1  0  0  0  0
  3 44  1  0  0  0  0
  4  5  1  0  0  0  0
  4 15  1  0  0  0  0
  5  6  1  0  0  0  0
  5 14  2  0  0  0  0
  6  7  2  0  0  0  0
  6 45  1  0  0  0  0
  7  8  1  0  0  0  0
  8  9  2  0  0  0  0
  8 46  1  0  0  0  0
  9 10  1  0  0  0  0
  9 14  1  0  0  0  0
 10 11  2  0  0  0  0
 10 47  1  0  0  0  0
 11 12  1  0  0  0  0
 11 48  1  0  0  0  0
 12 13  2  0  0  0  0
 12 49  1  0  0  0  0
 13 14  1  0  0  0  0
 13 50  1  0  0  0  0
 15 16  2  0  0  0  0
 17 15  1  6  0  0  0
 17 18  1  0  0  0  0
 17 38  1  0  0  0  0
 18 19  1  0  0  0  0
 18 51  1  0  0  0  0
 18 52  1  0  0  0  0
 19 20  1  0  0  0  0
 19 31  1  0  0  0  0
 20 21  1  0  0  0  0
 20 53  1  0  0  0  0
 20 54  1  0  0  0  0
 21 22  2  0  0  0  0
 21 23  1  0  0  0  0
 23 24  1  0  0  0  0
 23 55  1  0  0  0  0
 24 25  1  0  0  0  0
 24 56  1  0  0  0  0
 24 57  1  0  0  0  0
 25 26  1  0  0  0  0
 25 30  2  0  0  0  0
 26 27  2  0  0  0  0
 26 58  1  0  0  0  0
 27 28  1  0  0  0  0
 27 59  1  0  0  0  0
 28 29  1  0  0  0  0
 28 30  1  0  0  0  0
 29 60  1  0  0  0  0
 29 61  1  0  0  0  0
 29 62  1  0  0  0  0
 31 32  2  0  0  0  0
 31 33  1  0  0  0  0
 33 34  1  0  0  0  0
 33 38  2  0  0  0  0
 34 35  2  0  0  0  0
 34 63  1  0  0  0  0
 35 36  1  0  0  0  0
 35 64  1  0  0  0  0
 36 37  2  0  0  0  0
 36 65  1  0  0  0  0
 37 38  1  0  0  0  0
 37 66  1  0  0  0  0
M  END
$$$$
