
 OpenBabel07202414173D

 40 43  0  0  0  0  0  0  0  0999 V2000
   -1.3446   -0.4214    2.0993 Cl  0  0  0  0  0  0  0  0  0  0  0  0
   -0.1000   -0.1733    0.9364 C   0  0  0  0  0  0  0  0  0  0  0  0
    0.5822    1.0428    0.8942 C   0  0  0  0  0  0  0  0  0  0  0  0
    1.5900    1.2513   -0.0565 C   0  0  0  0  0  0  0  0  0  0  0  0
    2.3669    2.5482   -0.0907 C   0  0  0  0  0  0  0  0  0  0  0  0
    1.5160    3.7911   -0.2924 C   0  0  0  0  0  0  0  0  0  0  0  0
    1.2214    4.5248    0.6476 O   0  0  0  0  0  0  0  0  0  0  0  0
    1.1054    3.9815   -1.6009 N   0  0  0  0  0  0  0  0  0  0  0  0
    0.3427    5.1057   -2.0076 C   0  0  0  0  0  0  0  0  0  0  0  0
    0.6717    6.3932   -1.5757 C   0  0  0  0  0  0  0  0  0  0  0  0
    0.0275    7.5190   -1.9613 N   0  0  0  0  0  0  0  0  0  0  0  0
   -1.0220    7.3514   -2.7923 C   0  0  0  0  0  0  0  0  0  0  0  0
   -1.4611    6.1161   -3.2715 C   0  0  0  0  0  0  0  0  0  0  0  0
   -2.6004    6.0157   -4.0974 C   0  0  0  0  0  0  0  0  0  0  0  0
   -3.0536    4.7716   -4.5358 C   0  0  0  0  0  0  0  0  0  0  0  0
   -2.3782    3.6182   -4.1585 C   0  0  0  0  0  0  0  0  0  0  0  0
   -1.2382    3.7073   -3.3511 C   0  0  0  0  0  0  0  0  0  0  0  0
   -0.7572    4.9554   -2.8851 C   0  0  0  0  0  0  0  0  0  0  0  0
    1.9081    0.2054   -0.9423 C   0  0  0  0  0  0  0  0  0  0  0  0
    1.2294   -1.0264   -0.9003 C   0  0  0  0  0  0  0  0  0  0  0  0
    1.5835   -2.0851   -1.8444 C   0  0  0  0  0  0  0  0  0  0  0  0
    2.1915   -1.9422   -3.0076 N   0  0  0  0  0  0  0  0  0  0  0  0
    2.3038   -3.1798   -3.5990 N   0  0  0  0  0  0  0  0  0  0  0  0
    1.7823   -4.0592   -2.7785 C   0  0  0  0  0  0  0  0  0  0  0  0
    1.3404   -3.4253   -1.6597 N   0  0  0  0  0  0  0  0  0  0  0  0
    0.2145   -1.2003    0.0463 C   0  0  0  0  0  0  0  0  0  0  0  0
    0.3300    1.8243    1.6098 H   0  0  0  0  0  0  0  0  0  0  0  0
    3.1270    2.5265   -0.8804 H   0  0  0  0  0  0  0  0  0  0  0  0
    2.9127    2.6608    0.8549 H   0  0  0  0  0  0  0  0  0  0  0  0
    1.0672    3.1562   -2.1844 H   0  0  0  0  0  0  0  0  0  0  0  0
    1.5179    6.5702   -0.9171 H   0  0  0  0  0  0  0  0  0  0  0  0
   -1.5274    8.2750   -3.0650 H   0  0  0  0  0  0  0  0  0  0  0  0
   -3.1530    6.9068   -4.3886 H   0  0  0  0  0  0  0  0  0  0  0  0
   -3.9456    4.7013   -5.1546 H   0  0  0  0  0  0  0  0  0  0  0  0
   -2.7396    2.6438   -4.4749 H   0  0  0  0  0  0  0  0  0  0  0  0
   -0.7682    2.7749   -3.0542 H   0  0  0  0  0  0  0  0  0  0  0  0
    2.7094    0.3384   -1.6709 H   0  0  0  0  0  0  0  0  0  0  0  0
    1.7054   -5.1253   -2.9376 H   0  0  0  0  0  0  0  0  0  0  0  0
    0.9250   -3.8570   -0.8487 H   0  0  0  0  0  0  0  0  0  0  0  0
   -0.3548   -2.1256    0.0948 H   0  0  0  0  0  0  0  0  0  0  0  0
  1  2  1  0  0  0  0
  2  3  1  0  0  0  0
  2 26  2  0  0  0  0
  3  4  2  0  0  0  0
  3 27  1  0  0  0  0
  4  5  1  0  0  0  0
  4 19  1  0  0  0  0
  5  6  1  0  0  0  0
  5 28  1  0  0  0  0
  5 29  1  0  0  0  0
  6  7  2  0  0  0  0
  6  8  1  0  0  0  0
  8  9  1  0  0  0  0
  8 30  1  0  0  0  0
  9 10  1  0  0  0  0
  9 18  2  0  0  0  0
 10 11  2  0  0  0  0
 10 31  1  0  0  0  0
 11 12  1  0  0  0  0
 12 13  2  0  0  0  0
 12 32  1  0  0  0  0
 13 14  1  0  0  0  0
 13 18  1  0  0  0  0
 14 15  2  0  0  0  0
 14 33  1  0  0  0  0
 15 16  1  0  0  0  0
 15 34  1  0  0  0  0
 16 17  2  0  0  0  0
 16 35  1  0  0  0  0
 17 18  1  0  0  0  0
 17 36  1  0  0  0  0
 19 20  2  0  0  0  0
 19 37  1  0  0  0  0
 20 21  1  0  0  0  0
 20 26  1  0  0  0  0
 21 22  2  0  0  0  0
 21 25  1  0  0  0  0
 22 23  1  0  0  0  0
 23 24  2  0  0  0  0
 24 25  1  0  0  0  0
 24 38  1  0  0  0  0
 25 39  1  0  0  0  0
 26 40  1  0  0  0  0
M  END
$$$$
