
 OpenBabel07202414163D

 40 42  0  0  1  0  0  0  0  0999 V2000
    0.8504   -0.6033   -0.4680 C   0  0  0  0  0  0  0  0  0  0  0  0
    2.3350   -0.4904   -0.3664 C   0  0  0  0  0  0  0  0  0  0  0  0
    3.1145    0.6484   -0.3823 C   0  0  0  0  0  0  0  0  0  0  0  0
    4.4822    0.2678   -0.2911 C   0  0  0  0  0  0  0  0  0  0  0  0
    4.5003   -1.1229   -0.1978 C   0  0  0  0  0  0  0  0  0  0  0  0
    3.1837   -1.5541   -0.1382 N   0  0  0  0  0  0  0  0  0  0  0  0
    2.7421   -2.8829    0.2918 C   0  0  0  0  0  0  0  0  0  0  0  0
    2.5639   -2.9356    1.8243 C   0  0  3  0  0  0  0  0  0  0  0  0
    2.0829   -4.3037    2.3177 C   0  0  0  0  0  0  0  0  0  0  0  0
    0.6980   -4.4606    2.6117 O   0  0  0  0  0  0  0  0  0  0  0  0
    0.0300   -3.3128    2.9045 C   0  0  0  0  0  0  0  0  0  0  0  0
   -1.2735   -3.4509    3.3892 C   0  0  0  0  0  0  0  0  0  0  0  0
   -2.0716   -2.3253    3.6121 C   0  0  0  0  0  0  0  0  0  0  0  0
   -1.5664   -1.0555    3.3474 C   0  0  0  0  0  0  0  0  0  0  0  0
   -0.2484   -0.9179    2.9130 C   0  0  0  0  0  0  0  0  0  0  0  0
    0.5522   -2.0468    2.7057 C   0  0  0  0  0  0  0  0  0  0  0  0
    1.8301   -1.8112    2.3147 O   0  0  0  0  0  0  0  0  0  0  0  0
    5.6635   -2.0535   -0.0948 C   0  0  0  0  0  0  0  0  0  0  0  0
    5.6589    1.1454   -0.2716 C   0  0  0  0  0  0  0  0  0  0  0  0
    6.7420    0.7898   -0.7377 O   0  0  0  0  0  0  0  0  0  0  0  0
    5.5336    2.4924    0.4098 C   0  0  0  0  0  0  0  0  0  0  0  0
    5.0818    3.7271   -0.7738 Cl  0  0  0  0  0  0  0  0  0  0  0  0
    0.3685    0.1808    0.1253 H   0  0  0  0  0  0  0  0  0  0  0  0
    0.4620   -1.5577   -0.1054 H   0  0  0  0  0  0  0  0  0  0  0  0
    0.5308   -0.4985   -1.5087 H   0  0  0  0  0  0  0  0  0  0  0  0
    2.7242    1.6547   -0.4769 H   0  0  0  0  0  0  0  0  0  0  0  0
    3.4983   -3.6079   -0.0318 H   0  0  0  0  0  0  0  0  0  0  0  0
    1.8293   -3.1331   -0.2518 H   0  0  0  0  0  0  0  0  0  0  0  0
    3.5723   -2.8034    2.2371 H   0  0  0  0  0  0  0  0  0  0  0  0
    2.6376   -4.5721    3.2240 H   0  0  0  0  0  0  0  0  0  0  0  0
    2.3324   -5.0736    1.5772 H   0  0  0  0  0  0  0  0  0  0  0  0
   -1.6723   -4.4408    3.5935 H   0  0  0  0  0  0  0  0  0  0  0  0
   -3.0881   -2.4410    3.9800 H   0  0  0  0  0  0  0  0  0  0  0  0
   -2.1915   -0.1764    3.4845 H   0  0  0  0  0  0  0  0  0  0  0  0
    0.1518    0.0729    2.7115 H   0  0  0  0  0  0  0  0  0  0  0  0
    6.6196   -1.5261   -0.0448 H   0  0  0  0  0  0  0  0  0  0  0  0
    5.6989   -2.7157   -0.9656 H   0  0  0  0  0  0  0  0  0  0  0  0
    5.5957   -2.6641    0.8100 H   0  0  0  0  0  0  0  0  0  0  0  0
    6.5002    2.7648    0.8447 H   0  0  0  0  0  0  0  0  0  0  0  0
    4.7967    2.4642    1.2177 H   0  0  0  0  0  0  0  0  0  0  0  0
  1  2  1  0  0  0  0
  1 23  1  0  0  0  0
  1 24  1  0  0  0  0
  1 25  1  0  0  0  0
  2  3  2  0  0  0  0
  2  6  1  0  0  0  0
  3  4  1  0  0  0  0
  3 26  1  0  0  0  0
  4  5  2  0  0  0  0
  4 19  1  0  0  0  0
  5  6  1  0  0  0  0
  5 18  1  0  0  0  0
  6  7  1  0  0  0  0
  7  8  1  0  0  0  0
  7 27  1  0  0  0  0
  7 28  1  0  0  0  0
  8  9  1  0  0  0  0
  8 17  1  0  0  0  0
  8 29  1  0  0  0  0
  9 10  1  0  0  0  0
  9 30  1  0  0  0  0
  9 31  1  0  0  0  0
 10 11  1  0  0  0  0
 11 12  1  0  0  0  0
 11 16  2  0  0  0  0
 12 13  2  0  0  0  0
 12 32  1  0  0  0  0
 13 14  1  0  0  0  0
 13 33  1  0  0  0  0
 14 15  2  0  0  0  0
 14 34  1  0  0  0  0
 15 16  1  0  0  0  0
 15 35  1  0  0  0  0
 16 17  1  0  0  0  0
 18 36  1  0  0  0  0
 18 37  1  0  0  0  0
 18 38  1  0  0  0  0
 19 20  2  0  0  0  0
 19 21  1  0  0  0  0
 21 22  1  0  0  0  0
 21 39  1  0  0  0  0
 21 40  1  0  0  0  0
M  END
$$$$
