
 OpenBabel07202414173D

 35 36  0  0  0  0  0  0  0  0999 V2000
    0.9983    0.1993    0.4980 Cl  0  0  0  0  0  0  0  0  0  0  0  0
    2.7500    0.1884    0.7770 C   0  0  0  0  0  0  0  0  0  0  0  0
    3.3005   -1.2235    0.9287 C   0  0  0  0  0  0  0  0  0  0  0  0
    2.5810   -2.2225    0.9375 O   0  0  0  0  0  0  0  0  0  0  0  0
    4.6848   -1.3337    1.0453 N   0  0  0  0  0  0  0  0  0  0  0  0
    5.6233   -0.2109    1.1580 C   0  0  0  0  0  0  0  0  0  0  0  0
    6.8032   -0.3936    0.1879 C   0  0  0  0  0  0  0  0  0  0  0  0
    7.5234   -1.6762    0.3498 N   0  0  0  0  0  0  0  0  0  0  0  0
    8.2387   -1.7941    1.6340 C   0  0  0  0  0  0  0  0  0  0  0  0
    9.2737   -0.7154    1.8768 C   0  0  0  0  0  0  0  0  0  0  0  0
    9.1387    0.1712    2.9573 C   0  0  0  0  0  0  0  0  0  0  0  0
   10.0892    1.1678    3.1850 C   0  0  0  0  0  0  0  0  0  0  0  0
   11.1956    1.2799    2.3445 C   0  0  0  0  0  0  0  0  0  0  0  0
   11.3535    0.3912    1.2761 C   0  0  0  0  0  0  0  0  0  0  0  0
   12.5092    0.4825    0.4357 C   0  0  0  0  0  0  0  0  0  0  0  0
   13.4561    0.5560   -0.2350 N   0  0  0  0  0  0  0  0  0  0  0  0
   10.3920   -0.5977    1.0395 C   0  0  0  0  0  0  0  0  0  0  0  0
    6.5357   -2.7795    0.2093 C   0  0  0  0  0  0  0  0  0  0  0  0
    5.2990   -2.6646    1.1321 C   0  0  0  0  0  0  0  0  0  0  0  0
    2.9459    0.7606    1.6875 H   0  0  0  0  0  0  0  0  0  0  0  0
    3.2132    0.6723   -0.0872 H   0  0  0  0  0  0  0  0  0  0  0  0
    5.9692   -0.1786    2.1971 H   0  0  0  0  0  0  0  0  0  0  0  0
    5.1389    0.7465    0.9599 H   0  0  0  0  0  0  0  0  0  0  0  0
    7.4874    0.4591    0.2572 H   0  0  0  0  0  0  0  0  0  0  0  0
    6.4095   -0.3594   -0.8381 H   0  0  0  0  0  0  0  0  0  0  0  0
    8.7727   -2.7536    1.6549 H   0  0  0  0  0  0  0  0  0  0  0  0
    7.5480   -1.8214    2.4842 H   0  0  0  0  0  0  0  0  0  0  0  0
    8.2921    0.0879    3.6361 H   0  0  0  0  0  0  0  0  0  0  0  0
    9.9709    1.8509    4.0230 H   0  0  0  0  0  0  0  0  0  0  0  0
   11.9349    2.0570    2.5323 H   0  0  0  0  0  0  0  0  0  0  0  0
   10.5080   -1.2851    0.2020 H   0  0  0  0  0  0  0  0  0  0  0  0
    7.0259   -3.7492    0.3579 H   0  0  0  0  0  0  0  0  0  0  0  0
    6.1857   -2.7814   -0.8323 H   0  0  0  0  0  0  0  0  0  0  0  0
    5.5798   -2.8259    2.1793 H   0  0  0  0  0  0  0  0  0  0  0  0
    4.5806   -3.4478    0.8699 H   0  0  0  0  0  0  0  0  0  0  0  0
  1  2  1  0  0  0  0
  2  3  1  0  0  0  0
  2 20  1  0  0  0  0
  2 21  1  0  0  0  0
  3  4  2  0  0  0  0
  3  5  1  0  0  0  0
  5  6  1  0  0  0  0
  5 19  1  0  0  0  0
  6  7  1  0  0  0  0
  6 22  1  0  0  0  0
  6 23  1  0  0  0  0
  7  8  1  0  0  0  0
  7 24  1  0  0  0  0
  7 25  1  0  0  0  0
  8  9  1  0  0  0  0
  8 18  1  0  0  0  0
  9 10  1  0  0  0  0
  9 26  1  0  0  0  0
  9 27  1  0  0  0  0
 10 11  1  0  0  0  0
 10 17  2  0  0  0  0
 11 12  2  0  0  0  0
 11 28  1  0  0  0  0
 12 13  1  0  0  0  0
 12 29  1  0  0  0  0
 13 14  2  0  0  0  0
 13 30  1  0  0  0  0
 14 15  1  0  0  0  0
 14 17  1  0  0  0  0
 15 16  3  0  0  0  0
 17 31  1  0  0  0  0
 18 19  1  0  0  0  0
 18 32  1  0  0  0  0
 18 33  1  0  0  0  0
 19 34  1  0  0  0  0
 19 35  1  0  0  0  0
M  END
$$$$
