
 OpenBabel07202414113D

 39 42  0  0  1  0  0  0  0  0999 V2000
    2.6931   -2.9255   -0.8461 Br  0  0  0  0  0  0  0  0  0  0  0  0
    1.3157   -1.6801   -0.4986 C   0  0  0  0  0  0  0  0  0  0  0  0
    1.6155   -0.3240   -0.4065 C   0  0  0  0  0  0  0  0  0  0  0  0
    0.5936    0.5934   -0.1617 C   0  0  0  0  0  0  0  0  0  0  0  0
   -0.7189    0.1564    0.0136 C   0  0  0  0  0  0  0  0  0  0  0  0
   -1.0208   -1.2081   -0.0478 C   0  0  0  0  0  0  0  0  0  0  0  0
    0.0059   -2.1271   -0.3307 C   0  0  0  0  0  0  0  0  0  0  0  0
   -2.4281   -1.6835    0.2172 C   0  0  3  0  0  0  0  0  0  0  0  0
   -2.6891   -2.1207    1.6677 C   0  0  0  0  0  0  0  0  0  0  0  0
   -3.8290   -2.0639    2.1484 O   0  0  0  0  0  0  0  0  0  0  0  0
   -1.6086   -2.6035    2.3772 N   0  0  0  0  0  0  0  0  0  0  0  0
   -1.7530   -3.0955    3.6946 C   0  0  0  0  0  0  0  0  0  0  0  0
   -2.6576   -4.1263    3.9547 C   0  0  0  0  0  0  0  0  0  0  0  0
   -2.7691   -4.7557    5.1431 N   0  0  0  0  0  0  0  0  0  0  0  0
   -1.9502   -4.3220    6.1252 C   0  0  0  0  0  0  0  0  0  0  0  0
   -1.0297   -3.2773    5.9991 C   0  0  0  0  0  0  0  0  0  0  0  0
   -0.2177   -2.8716    7.0751 C   0  0  0  0  0  0  0  0  0  0  0  0
    0.6655   -1.8022    6.9388 C   0  0  0  0  0  0  0  0  0  0  0  0
    0.7290   -1.1121    5.7332 C   0  0  0  0  0  0  0  0  0  0  0  0
   -0.0620   -1.5133    4.6536 C   0  0  0  0  0  0  0  0  0  0  0  0
   -0.9340   -2.6259    4.7509 C   0  0  0  0  0  0  0  0  0  0  0  0
   -3.3955   -0.5609   -0.1694 C   0  0  0  0  0  0  0  0  0  0  0  0
   -2.9712    0.7203    0.5399 C   0  0  0  0  0  0  0  0  0  0  0  0
   -1.6491    1.1403    0.1931 O   0  0  0  0  0  0  0  0  0  0  0  0
    2.6335    0.0325   -0.5392 H   0  0  0  0  0  0  0  0  0  0  0  0
    0.8169    1.6566   -0.1148 H   0  0  0  0  0  0  0  0  0  0  0  0
   -0.2180   -3.1897   -0.4088 H   0  0  0  0  0  0  0  0  0  0  0  0
   -2.6465   -2.5544   -0.4148 H   0  0  0  0  0  0  0  0  0  0  0  0
   -0.7002   -2.2225    2.1395 H   0  0  0  0  0  0  0  0  0  0  0  0
   -3.2989   -4.5224    3.1706 H   0  0  0  0  0  0  0  0  0  0  0  0
   -2.0616   -4.8610    7.0645 H   0  0  0  0  0  0  0  0  0  0  0  0
   -0.2713   -3.3901    8.0310 H   0  0  0  0  0  0  0  0  0  0  0  0
    1.2933   -1.5027    7.7738 H   0  0  0  0  0  0  0  0  0  0  0  0
    1.3944   -0.2568    5.6322 H   0  0  0  0  0  0  0  0  0  0  0  0
   -0.0125   -0.9211    3.7430 H   0  0  0  0  0  0  0  0  0  0  0  0
   -4.4315   -0.8074    0.0868 H   0  0  0  0  0  0  0  0  0  0  0  0
   -3.3559   -0.4015   -1.2543 H   0  0  0  0  0  0  0  0  0  0  0  0
   -3.0231    0.6254    1.6305 H   0  0  0  0  0  0  0  0  0  0  0  0
   -3.6502    1.5306    0.2603 H   0  0  0  0  0  0  0  0  0  0  0  0
  1  2  1  0  0  0  0
  2  3  1  0  0  0  0
  2  7  2  0  0  0  0
  3  4  2  0  0  0  0
  3 25  1  0  0  0  0
  4  5  1  0  0  0  0
  4 26  1  0  0  0  0
  5  6  2  0  0  0  0
  5 24  1  0  0  0  0
  6  7  1  0  0  0  0
  6  8  1  0  0  0  0
  7 27  1  0  0  0  0
  8  9  1  0  0  0  0
  8 22  1  0  0  0  0
  8 28  1  0  0  0  0
  9 10  2  0  0  0  0
  9 11  1  0  0  0  0
 11 12  1  0  0  0  0
 11 29  1  0  0  0  0
 12 13  1  0  0  0  0
 12 21  2  0  0  0  0
 13 14  2  0  0  0  0
 13 30  1  0  0  0  0
 14 15  1  0  0  0  0
 15 16  2  0  0  0  0
 15 31  1  0  0  0  0
 16 17  1  0  0  0  0
 16 21  1  0  0  0  0
 17 18  2  0  0  0  0
 17 32  1  0  0  0  0
 18 19  1  0  0  0  0
 18 33  1  0  0  0  0
 19 20  2  0  0  0  0
 19 34  1  0  0  0  0
 20 21  1  0  0  0  0
 20 35  1  0  0  0  0
 22 23  1  0  0  0  0
 22 36  1  0  0  0  0
 22 37  1  0  0  0  0
 23 24  1  0  0  0  0
 23 38  1  0  0  0  0
 23 39  1  0  0  0  0
M  END
$$$$
