
 OpenBabel07202414123D

 71 75  0  0  1  0  0  0  0  0999 V2000
    0.2736    2.5421   -0.7138 C   0  0  0  0  0  0  0  0  0  0  0  0
   -0.0258    1.7366    0.5680 C   0  0  0  0  0  0  0  0  0  0  0  0
   -1.3438    2.2904    1.1573 C   0  0  0  0  0  0  0  0  0  0  0  0
   -0.2470    0.2639    0.1614 C   0  0  0  0  0  0  0  0  0  0  0  0
    1.0913    1.8280    1.6174 C   0  0  0  0  0  0  0  0  0  0  0  0
    2.2554    2.5869    1.4524 C   0  0  0  0  0  0  0  0  0  0  0  0
    3.2040    2.7052    2.4848 C   0  0  0  0  0  0  0  0  0  0  0  0
    3.0325    2.0963    3.7390 C   0  0  0  0  0  0  0  0  0  0  0  0
    3.9453    2.3417    4.8589 N   0  0  0  0  0  0  0  0  0  0  0  0
    3.9012    1.4576    6.0708 C   0  0  3  0  0  0  0  0  0  0  0  0
    2.7613    1.9233    7.0758 C   0  0  0  0  0  0  0  0  0  0  0  0
    2.8367    3.0009    7.6685 O   0  0  0  0  0  0  0  0  0  0  0  0
    1.6728    1.0848    7.2572 N   0  0  0  0  0  0  0  0  0  0  0  0
    0.5938    1.3048    8.2043 C   0  0  0  0  0  0  0  0  0  0  0  0
    0.0522   -0.0319    8.7398 C   0  0  0  0  0  0  0  0  0  0  0  0
   -1.1523    0.1625    9.6247 C   0  0  0  0  0  0  0  0  0  0  0  0
   -1.0032    0.3427   11.0078 C   0  0  0  0  0  0  0  0  0  0  0  0
   -2.1172    0.5855   11.8170 C   0  0  0  0  0  0  0  0  0  0  0  0
   -3.3893    0.6488   11.2513 C   0  0  0  0  0  0  0  0  0  0  0  0
   -3.5383    0.4573    9.8836 C   0  0  0  0  0  0  0  0  0  0  0  0
   -4.7601    0.5186    9.3377 F   0  0  0  0  0  0  0  0  0  0  0  0
   -2.4374    0.2137    9.0684 C   0  0  0  0  0  0  0  0  0  0  0  0
    3.9082   -0.0565    5.8547 C   0  0  0  0  0  0  0  0  0  0  0  0
    3.4334   -1.0589    6.6964 C   0  0  0  0  0  0  0  0  0  0  0  0
    3.4033   -2.2712    6.0886 N   0  0  0  0  0  0  0  0  0  0  0  0
    4.0914   -2.1008    4.9857 C   0  0  0  0  0  0  0  0  0  0  0  0
    4.5173   -3.0577    4.0302 C   0  0  0  0  0  0  0  0  0  0  0  0
    5.4669   -2.7213    3.1358 C   0  0  0  0  0  0  0  0  0  0  0  0
    6.0179   -1.3733    3.0996 C   0  0  0  0  0  0  0  0  0  0  0  0
    5.5249   -0.4323    3.9263 C   0  0  0  0  0  0  0  0  0  0  0  0
    4.5486   -0.7829    4.8584 N   0  0  0  0  0  0  0  0  0  0  0  0
    4.5488    3.6553    4.9348 C   0  0  0  0  0  0  0  0  0  0  0  0
    4.2662    4.5417    4.1208 O   0  0  0  0  0  0  0  0  0  0  0  0
    5.5001    4.0237    5.9886 C   0  0  0  0  0  0  0  0  0  0  0  0
    5.8779    5.2950    6.4052 C   0  0  0  0  0  0  0  0  0  0  0  0
    6.8528    5.1272    7.4126 C   0  0  0  0  0  0  0  0  0  0  0  0
    7.0463    3.7684    7.5227 C   0  0  0  0  0  0  0  0  0  0  0  0
    6.2628    3.1009    6.6417 O   0  0  0  0  0  0  0  0  0  0  0  0
    1.9258    1.2601    3.8393 C   0  0  0  0  0  0  0  0  0  0  0  0
    0.9697    1.1376    2.8266 C   0  0  0  0  0  0  0  0  0  0  0  0
   -0.5406    2.4480   -1.4416 H   0  0  0  0  0  0  0  0  0  0  0  0
    1.1904    2.1939   -1.2033 H   0  0  0  0  0  0  0  0  0  0  0  0
    0.3900    3.6108   -0.4961 H   0  0  0  0  0  0  0  0  0  0  0  0
   -2.1637    2.2052    0.4339 H   0  0  0  0  0  0  0  0  0  0  0  0
   -1.2456    3.3492    1.4249 H   0  0  0  0  0  0  0  0  0  0  0  0
   -1.6564    1.7523    2.0591 H   0  0  0  0  0  0  0  0  0  0  0  0
   -1.0567    0.1745   -0.5717 H   0  0  0  0  0  0  0  0  0  0  0  0
   -0.5230   -0.3656    1.0150 H   0  0  0  0  0  0  0  0  0  0  0  0
    0.6588   -0.1640   -0.2824 H   0  0  0  0  0  0  0  0  0  0  0  0
    2.4519    3.1269    0.5299 H   0  0  0  0  0  0  0  0  0  0  0  0
    4.0794    3.3122    2.2627 H   0  0  0  0  0  0  0  0  0  0  0  0
    4.8127    1.5947    6.6469 H   0  0  0  0  0  0  0  0  0  0  0  0
    1.5082    0.3466    6.5891 H   0  0  0  0  0  0  0  0  0  0  0  0
   -0.1903    1.8449    7.6637 H   0  0  0  0  0  0  0  0  0  0  0  0
    0.9450    1.9395    9.0238 H   0  0  0  0  0  0  0  0  0  0  0  0
    0.8364   -0.5685    9.2911 H   0  0  0  0  0  0  0  0  0  0  0  0
   -0.2165   -0.6979    7.9077 H   0  0  0  0  0  0  0  0  0  0  0  0
   -0.0161    0.3029   11.4652 H   0  0  0  0  0  0  0  0  0  0  0  0
   -1.9906    0.7333   12.8867 H   0  0  0  0  0  0  0  0  0  0  0  0
   -4.2618    0.8482   11.8646 H   0  0  0  0  0  0  0  0  0  0  0  0
   -2.5960    0.0746    8.0031 H   0  0  0  0  0  0  0  0  0  0  0  0
    3.0264   -0.9528    7.6952 H   0  0  0  0  0  0  0  0  0  0  0  0
    4.0959   -4.0558    4.0710 H   0  0  0  0  0  0  0  0  0  0  0  0
    5.8357   -3.4521    2.4251 H   0  0  0  0  0  0  0  0  0  0  0  0
    6.8202   -1.1659    2.3994 H   0  0  0  0  0  0  0  0  0  0  0  0
    5.9004    0.5829    3.9392 H   0  0  0  0  0  0  0  0  0  0  0  0
    5.4792    6.2227    6.0236 H   0  0  0  0  0  0  0  0  0  0  0  0
    7.3607    5.8967    7.9794 H   0  0  0  0  0  0  0  0  0  0  0  0
    7.6780    3.1568    8.1474 H   0  0  0  0  0  0  0  0  0  0  0  0
    1.7132    0.6890    4.7286 H   0  0  0  0  0  0  0  0  0  0  0  0
    0.1085    0.5026    3.0191 H   0  0  0  0  0  0  0  0  0  0  0  0
  1  2  1  0  0  0  0
  1 41  1  0  0  0  0
  1 42  1  0  0  0  0
  1 43  1  0  0  0  0
  2  3  1  0  0  0  0
  2  4  1  0  0  0  0
  2  5  1  0  0  0  0
  3 44  1  0  0  0  0
  3 45  1  0  0  0  0
  3 46  1  0  0  0  0
  4 47  1  0  0  0  0
  4 48  1  0  0  0  0
  4 49  1  0  0  0  0
  5  6  1  0  0  0  0
  5 40  2  0  0  0  0
  6  7  2  0  0  0  0
  6 50  1  0  0  0  0
  7  8  1  0  0  0  0
  7 51  1  0  0  0  0
  8  9  1  0  0  0  0
  8 39  2  0  0  0  0
  9 10  1  0  0  0  0
  9 32  1  0  0  0  0
 10 11  1  0  0  0  0
 10 23  1  0  0  0  0
 10 52  1  0  0  0  0
 11 12  2  0  0  0  0
 11 13  1  0  0  0  0
 13 14  1  0  0  0  0
 13 53  1  0  0  0  0
 14 15  1  0  0  0  0
 14 54  1  0  0  0  0
 14 55  1  0  0  0  0
 15 16  1  0  0  0  0
 15 56  1  0  0  0  0
 15 57  1  0  0  0  0
 16 17  1  0  0  0  0
 16 22  2  0  0  0  0
 17 18  2  0  0  0  0
 17 58  1  0  0  0  0
 18 19  1  0  0  0  0
 18 59  1  0  0  0  0
 19 20  2  0  0  0  0
 19 60  1  0  0  0  0
 20 21  1  0  0  0  0
 20 22  1  0  0  0  0
 22 61  1  0  0  0  0
 23 24  2  0  0  0  0
 23 31  1  0  0  0  0
 24 25  1  0  0  0  0
 24 62  1  0  0  0  0
 25 26  2  0  0  0  0
 26 27  1  0  0  0  0
 26 31  1  0  0  0  0
 27 28  2  0  0  0  0
 27 63  1  0  0  0  0
 28 29  1  0  0  0  0
 28 64  1  0  0  0  0
 29 30  2  0  0  0  0
 29 65  1  0  0  0  0
 30 31  1  0  0  0  0
 30 66  1  0  0  0  0
 32 33  2  0  0  0  0
 32 34  1  0  0  0  0
 34 35  2  0  0  0  0
 34 38  1  0  0  0  0
 35 36  1  0  0  0  0
 35 67  1  0  0  0  0
 36 37  2  0  0  0  0
 36 68  1  0  0  0  0
 37 38  1  0  0  0  0
 37 69  1  0  0  0  0
 39 40  1  0  0  0  0
 39 70  1  0  0  0  0
 40 71  1  0  0  0  0
M  END
$$$$
