
 OpenBabel07202414173D

 37 40  0  0  1  0  0  0  0  0999 V2000
    1.1511    0.0785   -0.0148 Cl  0  0  0  0  0  0  0  0  0  0  0  0
    2.8697    0.0629   -0.0012 C   0  0  0  0  0  0  0  0  0  0  0  0
    3.5779    1.2605   -0.0619 C   0  0  0  0  0  0  0  0  0  0  0  0
    4.9746    1.2434   -0.0403 C   0  0  0  0  0  0  0  0  0  0  0  0
    5.6610    0.0351    0.0597 C   0  0  0  0  0  0  0  0  0  0  0  0
    4.9512   -1.1675    0.1207 C   0  0  0  0  0  0  0  0  0  0  0  0
    3.5476   -1.1497    0.0850 C   0  0  0  0  0  0  0  0  0  0  0  0
    5.6817   -2.4731    0.2652 C   0  0  3  0  0  0  0  0  0  0  0  0
    5.6371   -3.0616    1.6816 C   0  0  0  0  0  0  0  0  0  0  0  0
    5.7383   -4.2817    1.8070 O   0  0  0  0  0  0  0  0  0  0  0  0
    5.5451   -2.1670    2.7414 N   0  0  0  0  0  0  0  0  0  0  0  0
    5.5998   -2.5334    4.1103 C   0  0  0  0  0  0  0  0  0  0  0  0
    6.0268   -3.7803    4.5711 C   0  0  0  0  0  0  0  0  0  0  0  0
    6.0770   -4.1779    5.8833 N   0  0  0  0  0  0  0  0  0  0  0  0
    5.6919   -3.2904    6.8198 C   0  0  0  0  0  0  0  0  0  0  0  0
    5.2928   -2.0323    6.4631 C   0  0  0  0  0  0  0  0  0  0  0  0
    4.8809   -0.9621    7.2485 N   0  0  0  0  0  0  0  0  0  0  0  0
    4.5592    0.1076    6.4077 C   0  0  0  0  0  0  0  0  0  0  0  0
    4.1580    1.2037    6.7525 O   0  0  0  0  0  0  0  0  0  0  0  0
    4.7857   -0.3281    5.0907 N   0  0  0  0  0  0  0  0  0  0  0  0
    5.2473   -1.6525    5.1215 C   0  0  0  0  0  0  0  0  0  0  0  0
    7.1269   -2.3203   -0.2043 C   0  0  0  0  0  0  0  0  0  0  0  0
    7.7342   -1.0764    0.4190 C   0  0  0  0  0  0  0  0  0  0  0  0
    7.0249    0.1179    0.0759 O   0  0  0  0  0  0  0  0  0  0  0  0
    3.0523    2.2085   -0.1295 H   0  0  0  0  0  0  0  0  0  0  0  0
    5.5291    2.1771   -0.0974 H   0  0  0  0  0  0  0  0  0  0  0  0
    2.9861   -2.0821    0.1263 H   0  0  0  0  0  0  0  0  0  0  0  0
    5.1936   -3.2088   -0.3904 H   0  0  0  0  0  0  0  0  0  0  0  0
    5.3201   -1.1995    2.5435 H   0  0  0  0  0  0  0  0  0  0  0  0
    6.3920   -4.5485    3.8965 H   0  0  0  0  0  0  0  0  0  0  0  0
    5.7150   -3.6360    7.8453 H   0  0  0  0  0  0  0  0  0  0  0  0
    4.8143   -0.9305    8.2536 H   0  0  0  0  0  0  0  0  0  0  0  0
    4.6068    0.2565    4.2926 H   0  0  0  0  0  0  0  0  0  0  0  0
    7.1388   -2.2114   -1.2975 H   0  0  0  0  0  0  0  0  0  0  0  0
    7.7239   -3.2053    0.0438 H   0  0  0  0  0  0  0  0  0  0  0  0
    8.7633   -0.9572    0.0626 H   0  0  0  0  0  0  0  0  0  0  0  0
    7.7877   -1.1530    1.5106 H   0  0  0  0  0  0  0  0  0  0  0  0
  1  2  1  0  0  0  0
  2  3  1  0  0  0  0
  2  7  2  0  0  0  0
  3  4  2  0  0  0  0
  3 25  1  0  0  0  0
  4  5  1  0  0  0  0
  4 26  1  0  0  0  0
  5  6  2  0  0  0  0
  5 24  1  0  0  0  0
  6  7  1  0  0  0  0
  6  8  1  0  0  0  0
  7 27  1  0  0  0  0
  8  9  1  0  0  0  0
  8 22  1  0  0  0  0
  8 28  1  0  0  0  0
  9 10  2  0  0  0  0
  9 11  1  0  0  0  0
 11 12  1  0  0  0  0
 11 29  1  0  0  0  0
 12 13  1  0  0  0  0
 12 21  2  0  0  0  0
 13 14  2  0  0  0  0
 13 30  1  0  0  0  0
 14 15  1  0  0  0  0
 15 16  2  0  0  0  0
 15 31  1  0  0  0  0
 16 17  1  0  0  0  0
 16 21  1  0  0  0  0
 17 18  1  0  0  0  0
 17 32  1  0  0  0  0
 18 19  2  0  0  0  0
 18 20  1  0  0  0  0
 20 21  1  0  0  0  0
 20 33  1  0  0  0  0
 22 23  1  0  0  0  0
 22 34  1  0  0  0  0
 22 35  1  0  0  0  0
 23 24  1  0  0  0  0
 23 36  1  0  0  0  0
 23 37  1  0  0  0  0
M  END
$$$$
