
 OpenBabel07202414123D

 61 63  0  0  1  0  0  0  0  0999 V2000
    1.0953   -0.3911    0.2044 C   0  0  0  0  0  0  0  0  0  0  0  0
    2.6335   -0.2557    0.0933 C   0  0  0  0  0  0  0  0  0  0  0  0
    3.1999    0.0744    1.4862 C   0  0  0  0  0  0  0  0  0  0  0  0
    3.1554   -1.6450   -0.3412 C   0  0  0  0  0  0  0  0  0  0  0  0
    3.0579    0.8561   -0.8790 C   0  0  0  0  0  0  0  0  0  0  0  0
    2.2434    1.9611   -1.1330 C   0  0  0  0  0  0  0  0  0  0  0  0
    2.6142    2.9573   -2.0519 C   0  0  0  0  0  0  0  0  0  0  0  0
    3.8305    2.9317   -2.7487 C   0  0  0  0  0  0  0  0  0  0  0  0
    4.1602    3.9357   -3.7611 N   0  0  0  0  0  0  0  0  0  0  0  0
    5.1575    3.6199   -4.8367 C   0  0  3  0  0  0  0  0  0  0  0  0
    6.5966    4.0861   -4.4538 C   0  0  0  0  0  0  0  0  0  0  0  0
    6.9541    5.2461   -4.6717 O   0  0  0  0  0  0  0  0  0  0  0  0
    7.4358    3.1849   -3.8338 N   0  0  0  0  0  0  0  0  0  0  0  0
    8.7828    3.5318   -3.4334 C   0  0  0  0  0  0  0  0  0  0  0  0
    8.8382    4.2156   -2.0911 C   0  0  0  0  0  0  0  0  0  0  0  0
    8.9837    3.4787   -0.9066 C   0  0  0  0  0  0  0  0  0  0  0  0
    9.0881    4.1305    0.3256 C   0  0  0  0  0  0  0  0  0  0  0  0
    9.0281    5.5211    0.3744 C   0  0  0  0  0  0  0  0  0  0  0  0
    9.1492    6.1446    1.5524 F   0  0  0  0  0  0  0  0  0  0  0  0
    8.8521    6.2679   -0.7834 C   0  0  0  0  0  0  0  0  0  0  0  0
    8.7534    5.6167   -2.0119 C   0  0  0  0  0  0  0  0  0  0  0  0
    5.0409    2.2898   -5.5861 C   0  0  0  0  0  0  0  0  0  0  0  0
    3.8194    1.6174   -5.7320 C   0  0  0  0  0  0  0  0  0  0  0  0
    3.7249    0.4917   -6.5475 C   0  0  0  0  0  0  0  0  0  0  0  0
    4.8553    0.0682   -7.2173 C   0  0  0  0  0  0  0  0  0  0  0  0
    6.0485    0.6909   -7.1272 N   0  0  0  0  0  0  0  0  0  0  0  0
    6.1043    1.7908   -6.3432 C   0  0  0  0  0  0  0  0  0  0  0  0
    3.5314    5.2037   -3.7041 C   0  0  0  0  0  0  0  0  0  0  0  0
    2.7516    5.5729   -2.8221 O   0  0  0  0  0  0  0  0  0  0  0  0
    3.8120    6.2066   -4.7752 C   0  0  0  0  0  0  0  0  0  0  0  0
    2.8483    7.0686   -5.1379 C   0  0  0  0  0  0  0  0  0  0  0  0
    4.6624    1.8517   -2.4439 C   0  0  0  0  0  0  0  0  0  0  0  0
    4.2953    0.8435   -1.5305 C   0  0  0  0  0  0  0  0  0  0  0  0
    0.8163   -1.2368    0.8437 H   0  0  0  0  0  0  0  0  0  0  0  0
    0.6405   -0.5562   -0.7801 H   0  0  0  0  0  0  0  0  0  0  0  0
    0.6302    0.4962    0.6472 H   0  0  0  0  0  0  0  0  0  0  0  0
    2.9151   -0.6881    2.2201 H   0  0  0  0  0  0  0  0  0  0  0  0
    2.8293    1.0402    1.8492 H   0  0  0  0  0  0  0  0  0  0  0  0
    4.2947    0.1278    1.4711 H   0  0  0  0  0  0  0  0  0  0  0  0
    2.7919   -2.4302    0.3328 H   0  0  0  0  0  0  0  0  0  0  0  0
    4.2484   -1.7061   -0.3251 H   0  0  0  0  0  0  0  0  0  0  0  0
    2.8181   -1.8954   -1.3540 H   0  0  0  0  0  0  0  0  0  0  0  0
    1.2863    2.0871   -0.6342 H   0  0  0  0  0  0  0  0  0  0  0  0
    1.8694    3.7299   -2.2156 H   0  0  0  0  0  0  0  0  0  0  0  0
    4.9138    4.2871   -5.6734 H   0  0  0  0  0  0  0  0  0  0  0  0
    7.2173    2.2008   -3.8449 H   0  0  0  0  0  0  0  0  0  0  0  0
    9.2450    4.1607   -4.2036 H   0  0  0  0  0  0  0  0  0  0  0  0
    9.3613    2.6016   -3.3975 H   0  0  0  0  0  0  0  0  0  0  0  0
    9.0368    2.3916   -0.9332 H   0  0  0  0  0  0  0  0  0  0  0  0
    9.2198    3.5712    1.2442 H   0  0  0  0  0  0  0  0  0  0  0  0
    8.7963    7.3497   -0.7241 H   0  0  0  0  0  0  0  0  0  0  0  0
    8.6144    6.2088   -2.9151 H   0  0  0  0  0  0  0  0  0  0  0  0
    2.9183    1.9747   -5.2332 H   0  0  0  0  0  0  0  0  0  0  0  0
    2.7815   -0.0304   -6.6719 H   0  0  0  0  0  0  0  0  0  0  0  0
    4.8298   -0.7942   -7.8789 H   0  0  0  0  0  0  0  0  0  0  0  0
    7.0737    2.2838   -6.3781 H   0  0  0  0  0  0  0  0  0  0  0  0
    4.8047    6.3083   -5.1846 H   0  0  0  0  0  0  0  0  0  0  0  0
    1.8544    7.0308   -4.6956 H   0  0  0  0  0  0  0  0  0  0  0  0
    3.0413    7.8518   -5.8609 H   0  0  0  0  0  0  0  0  0  0  0  0
    5.6357    1.7390   -2.8838 H   0  0  0  0  0  0  0  0  0  0  0  0
    5.0141    0.0493   -1.3451 H   0  0  0  0  0  0  0  0  0  0  0  0
  1  2  1  0  0  0  0
  1 34  1  0  0  0  0
  1 35  1  0  0  0  0
  1 36  1  0  0  0  0
  2  3  1  0  0  0  0
  2  4  1  0  0  0  0
  2  5  1  0  0  0  0
  3 37  1  0  0  0  0
  3 38  1  0  0  0  0
  3 39  1  0  0  0  0
  4 40  1  0  0  0  0
  4 41  1  0  0  0  0
  4 42  1  0  0  0  0
  5  6  1  0  0  0  0
  5 33  2  0  0  0  0
  6  7  2  0  0  0  0
  6 43  1  0  0  0  0
  7  8  1  0  0  0  0
  7 44  1  0  0  0  0
  8  9  1  0  0  0  0
  8 32  2  0  0  0  0
  9 10  1  0  0  0  0
  9 28  1  0  0  0  0
 10 11  1  0  0  0  0
 10 22  1  0  0  0  0
 10 45  1  0  0  0  0
 11 12  2  0  0  0  0
 11 13  1  0  0  0  0
 13 14  1  0  0  0  0
 13 46  1  0  0  0  0
 14 15  1  0  0  0  0
 14 47  1  0  0  0  0
 14 48  1  0  0  0  0
 15 16  1  0  0  0  0
 15 21  2  0  0  0  0
 16 17  2  0  0  0  0
 16 49  1  0  0  0  0
 17 18  1  0  0  0  0
 17 50  1  0  0  0  0
 18 19  1  0  0  0  0
 18 20  2  0  0  0  0
 20 21  1  0  0  0  0
 20 51  1  0  0  0  0
 21 52  1  0  0  0  0
 22 23  1  0  0  0  0
 22 27  2  0  0  0  0
 23 24  2  0  0  0  0
 23 53  1  0  0  0  0
 24 25  1  0  0  0  0
 24 54  1  0  0  0  0
 25 26  2  0  0  0  0
 25 55  1  0  0  0  0
 26 27  1  0  0  0  0
 27 56  1  0  0  0  0
 28 29  2  0  0  0  0
 28 30  1  0  0  0  0
 30 31  2  0  0  0  0
 30 57  1  0  0  0  0
 31 58  1  0  0  0  0
 31 59  1  0  0  0  0
 32 33  1  0  0  0  0
 32 60  1  0  0  0  0
 33 61  1  0  0  0  0
M  END
$$$$
