
 OpenBabel07202414163D

 36 38  0  0  1  0  0  0  0  0999 V2000
    1.6963    2.6712   -0.4591 C   0  0  0  0  0  0  0  0  0  0  0  0
    0.8781    1.4239   -0.6361 C   0  0  0  0  0  0  0  0  0  0  0  0
    1.5789    0.2491   -0.9883 C   0  0  0  0  0  0  0  0  0  0  0  0
    0.8943   -0.9433   -1.1433 C   0  0  0  0  0  0  0  0  0  0  0  0
   -0.4237   -1.0550   -0.9422 N   0  0  0  0  0  0  0  0  0  0  0  0
   -1.0854    0.0829   -0.5992 C   0  0  0  0  0  0  0  0  0  0  0  0
   -0.5172    1.3580   -0.4483 C   0  0  0  0  0  0  0  0  0  0  0  0
   -1.2958    2.5315   -0.1488 N   0  0  0  0  0  0  0  0  0  0  0  0
   -2.6815    2.5662   -0.1772 C   0  0  0  0  0  0  0  0  0  0  0  0
   -3.3864    1.5893   -0.4244 O   0  0  0  0  0  0  0  0  0  0  0  0
   -3.4162    3.8974   -0.0206 C   0  0  3  0  0  0  0  0  0  0  0  0
   -3.3595    4.7473   -1.2895 C   0  0  0  0  0  0  0  0  0  0  0  0
   -2.5787    6.0239   -1.0607 C   0  0  0  0  0  0  0  0  0  0  0  0
   -3.1310    6.7890    0.0103 O   0  0  0  0  0  0  0  0  0  0  0  0
   -3.2475    6.0967    1.1852 C   0  0  0  0  0  0  0  0  0  0  0  0
   -3.4611    6.8703    2.3261 C   0  0  0  0  0  0  0  0  0  0  0  0
   -3.6485    6.2562    3.5625 C   0  0  0  0  0  0  0  0  0  0  0  0
   -3.6028    4.8677    3.6534 C   0  0  0  0  0  0  0  0  0  0  0  0
   -3.8639    4.1089    5.1755 Cl  0  0  0  0  0  0  0  0  0  0  0  0
   -3.4086    4.0841    2.5084 C   0  0  0  0  0  0  0  0  0  0  0  0
   -3.2603    4.6947    1.2520 C   0  0  0  0  0  0  0  0  0  0  0  0
    2.6859    2.5595   -0.9212 H   0  0  0  0  0  0  0  0  0  0  0  0
    1.8488    2.8715    0.6056 H   0  0  0  0  0  0  0  0  0  0  0  0
    1.2230    3.5305   -0.9397 H   0  0  0  0  0  0  0  0  0  0  0  0
    2.6521    0.2556   -1.1528 H   0  0  0  0  0  0  0  0  0  0  0  0
    1.4002   -1.8592   -1.4345 H   0  0  0  0  0  0  0  0  0  0  0  0
   -2.1368   -0.1162   -0.4298 H   0  0  0  0  0  0  0  0  0  0  0  0
   -0.7934    3.3904    0.0326 H   0  0  0  0  0  0  0  0  0  0  0  0
   -4.4713    3.5765    0.0410 H   0  0  0  0  0  0  0  0  0  0  0  0
   -4.3909    5.0269   -1.5494 H   0  0  0  0  0  0  0  0  0  0  0  0
   -2.9604    4.1908   -2.1437 H   0  0  0  0  0  0  0  0  0  0  0  0
   -2.6374    6.6477   -1.9601 H   0  0  0  0  0  0  0  0  0  0  0  0
   -1.5185    5.8278   -0.8661 H   0  0  0  0  0  0  0  0  0  0  0  0
   -3.5212    7.9534    2.2423 H   0  0  0  0  0  0  0  0  0  0  0  0
   -3.8556    6.8637    4.4397 H   0  0  0  0  0  0  0  0  0  0  0  0
   -3.4556    3.0001    2.5946 H   0  0  0  0  0  0  0  0  0  0  0  0
  1  2  1  0  0  0  0
  1 22  1  0  0  0  0
  1 23  1  0  0  0  0
  1 24  1  0  0  0  0
  2  3  1  0  0  0  0
  2  7  2  0  0  0  0
  3  4  2  0  0  0  0
  3 25  1  0  0  0  0
  4  5  1  0  0  0  0
  4 26  1  0  0  0  0
  5  6  2  0  0  0  0
  6  7  1  0  0  0  0
  6 27  1  0  0  0  0
  7  8  1  0  0  0  0
  8  9  1  0  0  0  0
  8 28  1  0  0  0  0
  9 10  2  0  0  0  0
  9 11  1  0  0  0  0
 11 12  1  0  0  0  0
 11 21  1  0  0  0  0
 11 29  1  0  0  0  0
 12 13  1  0  0  0  0
 12 30  1  0  0  0  0
 12 31  1  0  0  0  0
 13 14  1  0  0  0  0
 13 32  1  0  0  0  0
 13 33  1  0  0  0  0
 14 15  1  0  0  0  0
 15 16  1  0  0  0  0
 15 21  2  0  0  0  0
 16 17  2  0  0  0  0
 16 34  1  0  0  0  0
 17 18  1  0  0  0  0
 17 35  1  0  0  0  0
 18 19  1  0  0  0  0
 18 20  2  0  0  0  0
 20 21  1  0  0  0  0
 20 36  1  0  0  0  0
M  END
$$$$
