
 OpenBabel07202414123D

 60 62  0  0  1  0  0  0  0  0999 V2000
    7.4401   -1.8340   -0.1208 C   0  0  0  0  0  0  0  0  0  0  0  0
    6.2353   -0.9464    0.2422 C   0  0  0  0  0  0  0  0  0  0  0  0
    6.5959   -0.0346    1.4264 C   0  0  0  0  0  0  0  0  0  0  0  0
    5.8894   -0.0710   -0.9758 C   0  0  0  0  0  0  0  0  0  0  0  0
    5.0871   -1.8191    0.6488 C   0  0  0  0  0  0  0  0  0  0  0  0
    4.9409   -2.7695    1.6377 C   0  0  0  0  0  0  0  0  0  0  0  0
    3.6327   -3.2995    1.4646 C   0  0  0  0  0  0  0  0  0  0  0  0
    3.0240   -2.6261    0.4790 N   0  0  0  0  0  0  0  0  0  0  0  0
    3.9249   -1.7310   -0.0371 O   0  0  0  0  0  0  0  0  0  0  0  0
    3.0406   -4.3551    2.2054 N   0  0  0  0  0  0  0  0  0  0  0  0
    3.6483   -4.8502    3.4710 C   0  0  3  0  0  0  0  0  0  0  0  0
    4.7144   -5.9359    3.2529 C   0  0  0  0  0  0  0  0  0  0  0  0
    5.5431   -6.0171    2.1269 C   0  0  0  0  0  0  0  0  0  0  0  0
    6.5076   -7.0180    2.0247 C   0  0  0  0  0  0  0  0  0  0  0  0
    6.6083   -7.9391    3.0461 C   0  0  0  0  0  0  0  0  0  0  0  0
    5.8335   -7.9079    4.1495 N   0  0  0  0  0  0  0  0  0  0  0  0
    4.9257   -6.9072    4.2364 C   0  0  0  0  0  0  0  0  0  0  0  0
    4.0966   -3.8500    4.5998 C   0  0  0  0  0  0  0  0  0  0  0  0
    4.5685   -4.2840    5.6562 O   0  0  0  0  0  0  0  0  0  0  0  0
    3.9586   -2.4866    4.4227 N   0  0  0  0  0  0  0  0  0  0  0  0
    4.4714   -1.5963    5.4583 C   0  0  0  0  0  0  0  0  0  0  0  0
    4.4496   -0.1089    5.1015 C   0  0  0  0  0  0  0  0  0  0  0  0
    5.0525    0.7200    6.2158 C   0  0  0  0  0  0  0  0  0  0  0  0
    4.2512    1.2074    7.2614 C   0  0  0  0  0  0  0  0  0  0  0  0
    4.8152    1.9281    8.3204 C   0  0  0  0  0  0  0  0  0  0  0  0
    6.1871    2.1688    8.3462 C   0  0  0  0  0  0  0  0  0  0  0  0
    6.9820    1.6886    7.3132 C   0  0  0  0  0  0  0  0  0  0  0  0
    6.4323    0.9681    6.2548 C   0  0  0  0  0  0  0  0  0  0  0  0
    8.3027    1.9116    7.3421 F   0  0  0  0  0  0  0  0  0  0  0  0
    1.9352   -4.9952    1.6051 C   0  0  0  0  0  0  0  0  0  0  0  0
    1.4050   -4.6690    0.5429 O   0  0  0  0  0  0  0  0  0  0  0  0
    1.3611   -6.2068    2.2732 C   0  0  0  0  0  0  0  0  0  0  0  0
    0.0629   -6.4954    2.0962 C   0  0  0  0  0  0  0  0  0  0  0  0
    8.3148   -1.2273   -0.3795 H   0  0  0  0  0  0  0  0  0  0  0  0
    7.2133   -2.4785   -0.9801 H   0  0  0  0  0  0  0  0  0  0  0  0
    7.7255   -2.4905    0.7104 H   0  0  0  0  0  0  0  0  0  0  0  0
    7.4510    0.6087    1.1876 H   0  0  0  0  0  0  0  0  0  0  0  0
    6.8593   -0.6175    2.3169 H   0  0  0  0  0  0  0  0  0  0  0  0
    5.7535    0.6117    1.6972 H   0  0  0  0  0  0  0  0  0  0  0  0
    6.7338    0.5716   -1.2498 H   0  0  0  0  0  0  0  0  0  0  0  0
    5.0299    0.5797   -0.7748 H   0  0  0  0  0  0  0  0  0  0  0  0
    5.6419   -0.6824   -1.8520 H   0  0  0  0  0  0  0  0  0  0  0  0
    5.7067   -3.0633    2.3366 H   0  0  0  0  0  0  0  0  0  0  0  0
    2.8241   -5.3508    3.9968 H   0  0  0  0  0  0  0  0  0  0  0  0
    5.4652   -5.3222    1.2986 H   0  0  0  0  0  0  0  0  0  0  0  0
    7.1617   -7.0754    1.1620 H   0  0  0  0  0  0  0  0  0  0  0  0
    7.3304   -8.7490    3.0056 H   0  0  0  0  0  0  0  0  0  0  0  0
    4.3568   -6.9121    5.1647 H   0  0  0  0  0  0  0  0  0  0  0  0
    3.3084   -2.1276    3.7314 H   0  0  0  0  0  0  0  0  0  0  0  0
    5.5047   -1.9057    5.6665 H   0  0  0  0  0  0  0  0  0  0  0  0
    3.8924   -1.7812    6.3700 H   0  0  0  0  0  0  0  0  0  0  0  0
    3.4223    0.2221    4.9066 H   0  0  0  0  0  0  0  0  0  0  0  0
    5.0035    0.0721    4.1725 H   0  0  0  0  0  0  0  0  0  0  0  0
    3.1789    1.0228    7.2640 H   0  0  0  0  0  0  0  0  0  0  0  0
    4.1855    2.2955    9.1274 H   0  0  0  0  0  0  0  0  0  0  0  0
    6.6411    2.7181    9.1646 H   0  0  0  0  0  0  0  0  0  0  0  0
    7.0940    0.5991    5.4762 H   0  0  0  0  0  0  0  0  0  0  0  0
    1.9993   -6.8953    2.8081 H   0  0  0  0  0  0  0  0  0  0  0  0
   -0.5857   -5.8508    1.5059 H   0  0  0  0  0  0  0  0  0  0  0  0
   -0.3787   -7.3964    2.5078 H   0  0  0  0  0  0  0  0  0  0  0  0
  1  2  1  0  0  0  0
  1 34  1  0  0  0  0
  1 35  1  0  0  0  0
  1 36  1  0  0  0  0
  2  3  1  0  0  0  0
  2  4  1  0  0  0  0
  2  5  1  0  0  0  0
  3 37  1  0  0  0  0
  3 38  1  0  0  0  0
  3 39  1  0  0  0  0
  4 40  1  0  0  0  0
  4 41  1  0  0  0  0
  4 42  1  0  0  0  0
  5  6  2  0  0  0  0
  5  9  1  0  0  0  0
  6  7  1  0  0  0  0
  6 43  1  0  0  0  0
  7  8  2  0  0  0  0
  7 10  1  0  0  0  0
  8  9  1  0  0  0  0
 10 11  1  0  0  0  0
 10 30  1  0  0  0  0
 11 12  1  0  0  0  0
 11 18  1  0  0  0  0
 11 44  1  0  0  0  0
 12 13  1  0  0  0  0
 12 17  2  0  0  0  0
 13 14  2  0  0  0  0
 13 45  1  0  0  0  0
 14 15  1  0  0  0  0
 14 46  1  0  0  0  0
 15 16  2  0  0  0  0
 15 47  1  0  0  0  0
 16 17  1  0  0  0  0
 17 48  1  0  0  0  0
 18 19  2  0  0  0  0
 18 20  1  0  0  0  0
 20 21  1  0  0  0  0
 20 49  1  0  0  0  0
 21 22  1  0  0  0  0
 21 50  1  0  0  0  0
 21 51  1  0  0  0  0
 22 23  1  0  0  0  0
 22 52  1  0  0  0  0
 22 53  1  0  0  0  0
 23 24  1  0  0  0  0
 23 28  2  0  0  0  0
 24 25  2  0  0  0  0
 24 54  1  0  0  0  0
 25 26  1  0  0  0  0
 25 55  1  0  0  0  0
 26 27  2  0  0  0  0
 26 56  1  0  0  0  0
 27 28  1  0  0  0  0
 27 29  1  0  0  0  0
 28 57  1  0  0  0  0
 30 31  2  0  0  0  0
 30 32  1  0  0  0  0
 32 33  2  0  0  0  0
 32 58  1  0  0  0  0
 33 59  1  0  0  0  0
 33 60  1  0  0  0  0
M  END
$$$$
