
 OpenBabel07202414163D

 42 45  0  0  0  0  0  0  0  0999 V2000
   -2.5501    0.5745   -3.2089 C   0  0  0  0  0  0  0  0  0  0  0  0
   -1.4303    0.4517   -2.2174 C   0  0  0  0  0  0  0  0  0  0  0  0
   -0.9200   -0.7972   -1.8818 C   0  0  0  0  0  0  0  0  0  0  0  0
    0.1212   -0.8839   -0.9531 C   0  0  0  0  0  0  0  0  0  0  0  0
    0.6893   -2.2306   -0.5937 C   0  0  0  0  0  0  0  0  0  0  0  0
    0.6191    0.3038   -0.3852 C   0  0  0  0  0  0  0  0  0  0  0  0
    1.6835    0.2488    0.5730 C   0  0  0  0  0  0  0  0  0  0  0  0
    2.5443    0.1610    1.3483 N   0  0  0  0  0  0  0  0  0  0  0  0
    0.0582    1.5244   -0.7771 C   0  0  0  0  0  0  0  0  0  0  0  0
    0.7183    3.0730   -0.1705 S   0  0  0  0  0  0  0  0  0  0  0  0
   -0.6795    4.1375   -0.2118 C   0  0  0  0  0  0  0  0  0  0  0  0
   -1.5291    4.1851    0.8486 N   0  0  0  0  0  0  0  0  0  0  0  0
   -2.5052    5.1161    0.8303 C   0  0  0  0  0  0  0  0  0  0  0  0
   -2.7507    6.0506   -0.1118 N   0  0  0  0  0  0  0  0  0  0  0  0
   -1.8658    5.9598   -1.1227 C   0  0  0  0  0  0  0  0  0  0  0  0
   -1.7497    6.7411   -2.2395 N   0  0  0  0  0  0  0  0  0  0  0  0
   -2.5307    7.9079   -2.5964 C   0  0  0  0  0  0  0  0  0  0  0  0
   -3.7106    7.5315   -3.4555 C   0  0  0  0  0  0  0  0  0  0  0  0
   -4.9561    7.2597   -2.8712 C   0  0  0  0  0  0  0  0  0  0  0  0
   -6.0273    6.8335   -3.6572 C   0  0  0  0  0  0  0  0  0  0  0  0
   -5.8668    6.6788   -5.0328 C   0  0  0  0  0  0  0  0  0  0  0  0
   -4.6402    6.9672   -5.6277 C   0  0  0  0  0  0  0  0  0  0  0  0
   -3.5663    7.3918   -4.8443 C   0  0  0  0  0  0  0  0  0  0  0  0
   -0.6917    6.3656   -2.9954 N   0  0  0  0  0  0  0  0  0  0  0  0
   -0.1222    5.3241   -2.3970 N   0  0  0  0  0  0  0  0  0  0  0  0
   -0.8232    5.0566   -1.2481 C   0  0  0  0  0  0  0  0  0  0  0  0
   -0.9534    1.6014   -1.6819 N   0  0  0  0  0  0  0  0  0  0  0  0
   -2.8579   -0.4034   -3.5947 H   0  0  0  0  0  0  0  0  0  0  0  0
   -2.2340    1.1888   -4.0573 H   0  0  0  0  0  0  0  0  0  0  0  0
   -3.4185    1.0392   -2.7326 H   0  0  0  0  0  0  0  0  0  0  0  0
   -1.3273   -1.6946   -2.3408 H   0  0  0  0  0  0  0  0  0  0  0  0
    0.1836   -3.0376   -1.1342 H   0  0  0  0  0  0  0  0  0  0  0  0
    0.5664   -2.4229    0.4770 H   0  0  0  0  0  0  0  0  0  0  0  0
    1.7518   -2.2765   -0.8547 H   0  0  0  0  0  0  0  0  0  0  0  0
   -3.1679    5.1219    1.6920 H   0  0  0  0  0  0  0  0  0  0  0  0
   -1.8722    8.6093   -3.1228 H   0  0  0  0  0  0  0  0  0  0  0  0
   -2.8517    8.4038   -1.6733 H   0  0  0  0  0  0  0  0  0  0  0  0
   -5.0955    7.3612   -1.7964 H   0  0  0  0  0  0  0  0  0  0  0  0
   -6.9846    6.6092   -3.1937 H   0  0  0  0  0  0  0  0  0  0  0  0
   -6.6961    6.3267   -5.6408 H   0  0  0  0  0  0  0  0  0  0  0  0
   -4.5153    6.8473   -6.7010 H   0  0  0  0  0  0  0  0  0  0  0  0
   -2.6094    7.5937   -5.3234 H   0  0  0  0  0  0  0  0  0  0  0  0
  1  2  1  0  0  0  0
  1 28  1  0  0  0  0
  1 29  1  0  0  0  0
  1 30  1  0  0  0  0
  2  3  1  0  0  0  0
  2 27  2  0  0  0  0
  3  4  2  0  0  0  0
  3 31  1  0  0  0  0
  4  5  1  0  0  0  0
  4  6  1  0  0  0  0
  5 32  1  0  0  0  0
  5 33  1  0  0  0  0
  5 34  1  0  0  0  0
  6  7  1  0  0  0  0
  6  9  2  0  0  0  0
  7  8  3  0  0  0  0
  9 10  1  0  0  0  0
  9 27  1  0  0  0  0
 10 11  1  0  0  0  0
 11 12  1  0  0  0  0
 11 26  2  0  0  0  0
 12 13  2  0  0  0  0
 13 14  1  0  0  0  0
 13 35  1  0  0  0  0
 14 15  2  0  0  0  0
 15 16  1  0  0  0  0
 15 26  1  0  0  0  0
 16 17  1  0  0  0  0
 16 24  1  0  0  0  0
 17 18  1  0  0  0  0
 17 36  1  0  0  0  0
 17 37  1  0  0  0  0
 18 19  1  0  0  0  0
 18 23  2  0  0  0  0
 19 20  2  0  0  0  0
 19 38  1  0  0  0  0
 20 21  1  0  0  0  0
 20 39  1  0  0  0  0
 21 22  2  0  0  0  0
 21 40  1  0  0  0  0
 22 23  1  0  0  0  0
 22 41  1  0  0  0  0
 23 42  1  0  0  0  0
 24 25  2  0  0  0  0
 25 26  1  0  0  0  0
M  END
$$$$
