
 OpenBabel07202414163D

 50 54  0  0  0  0  0  0  0  0999 V2000
   -2.1114   -0.1829    0.1184 Cl  0  0  0  0  0  0  0  0  0  0  0  0
   -0.3943   -0.0800    0.0543 C   0  0  0  0  0  0  0  0  0  0  0  0
    0.2181    1.1700   -0.0061 C   0  0  0  0  0  0  0  0  0  0  0  0
    1.6170    1.2650   -0.0231 C   0  0  0  0  0  0  0  0  0  0  0  0
    2.2980    2.6115   -0.0369 C   0  0  0  0  0  0  0  0  0  0  0  0
    2.4479    3.2147   -1.4249 C   0  0  0  0  0  0  0  0  0  0  0  0
    1.4859    3.6704   -2.0371 O   0  0  0  0  0  0  0  0  0  0  0  0
    3.7436    3.1691   -1.9158 N   0  0  0  0  0  0  0  0  0  0  0  0
    4.1182    3.7279   -3.1640 C   0  0  0  0  0  0  0  0  0  0  0  0
    3.6291    4.9709   -3.5729 C   0  0  0  0  0  0  0  0  0  0  0  0
    3.9772    5.5898   -4.7238 N   0  0  0  0  0  0  0  0  0  0  0  0
    4.8261    4.9182   -5.5302 C   0  0  0  0  0  0  0  0  0  0  0  0
    5.3665    3.6617   -5.2451 C   0  0  0  0  0  0  0  0  0  0  0  0
    6.2090    3.0036   -6.1587 C   0  0  0  0  0  0  0  0  0  0  0  0
    6.7096    1.7346   -5.8769 C   0  0  0  0  0  0  0  0  0  0  0  0
    6.3844    1.1149   -4.6774 C   0  0  0  0  0  0  0  0  0  0  0  0
    5.5546    1.7617   -3.7587 C   0  0  0  0  0  0  0  0  0  0  0  0
    5.0224    3.0487   -4.0178 C   0  0  0  0  0  0  0  0  0  0  0  0
    2.3693    0.0806   -0.0063 C   0  0  0  0  0  0  0  0  0  0  0  0
    1.7627   -1.1846    0.0405 C   0  0  0  0  0  0  0  0  0  0  0  0
    2.5159   -2.3713    0.0697 N   0  0  0  0  0  0  0  0  0  0  0  0
    3.7907   -2.6590   -0.4663 C   0  0  0  0  0  0  0  0  0  0  0  0
    4.6466   -3.6074    0.1353 C   0  0  0  0  0  0  0  0  0  0  0  0
    4.0761   -4.4824    1.7437 Br  0  0  0  0  0  0  0  0  0  0  0  0
    5.9105   -3.9254   -0.3948 C   0  0  0  0  0  0  0  0  0  0  0  0
    6.7341   -4.8521    0.1652 N   0  0  0  0  0  0  0  0  0  0  0  0
    7.9146   -5.0892   -0.4441 C   0  0  0  0  0  0  0  0  0  0  0  0
    8.2943   -4.4187   -1.5838 C   0  0  0  0  0  0  0  0  0  0  0  0
    7.5079   -3.4871   -2.1602 N   0  0  0  0  0  0  0  0  0  0  0  0
    6.3226   -3.2494   -1.5699 C   0  0  0  0  0  0  0  0  0  0  0  0
    5.4869   -2.3153   -2.1566 C   0  0  0  0  0  0  0  0  0  0  0  0
    4.2362   -2.0186   -1.6217 C   0  0  0  0  0  0  0  0  0  0  0  0
    0.3662   -1.2475    0.0793 C   0  0  0  0  0  0  0  0  0  0  0  0
   -0.3876    2.0725   -0.0234 H   0  0  0  0  0  0  0  0  0  0  0  0
    3.2790    2.5427    0.4512 H   0  0  0  0  0  0  0  0  0  0  0  0
    1.7251    3.3276    0.5668 H   0  0  0  0  0  0  0  0  0  0  0  0
    4.3616    2.4786   -1.5141 H   0  0  0  0  0  0  0  0  0  0  0  0
    2.9510    5.5473   -2.9488 H   0  0  0  0  0  0  0  0  0  0  0  0
    5.0605    5.4342   -6.4579 H   0  0  0  0  0  0  0  0  0  0  0  0
    6.4634    3.4696   -7.1088 H   0  0  0  0  0  0  0  0  0  0  0  0
    7.3425    1.2247   -6.5990 H   0  0  0  0  0  0  0  0  0  0  0  0
    6.7630    0.1191   -4.4618 H   0  0  0  0  0  0  0  0  0  0  0  0
    5.3034    1.2229   -2.8503 H   0  0  0  0  0  0  0  0  0  0  0  0
    3.4547    0.1468    0.0165 H   0  0  0  0  0  0  0  0  0  0  0  0
    1.9728   -3.2166    0.2335 H   0  0  0  0  0  0  0  0  0  0  0  0
    8.5464   -5.8418    0.0131 H   0  0  0  0  0  0  0  0  0  0  0  0
    9.2423   -4.6120   -2.0720 H   0  0  0  0  0  0  0  0  0  0  0  0
    5.8079   -1.8207   -3.0693 H   0  0  0  0  0  0  0  0  0  0  0  0
    3.5968   -1.3113   -2.1445 H   0  0  0  0  0  0  0  0  0  0  0  0
   -0.1373   -2.2100    0.1279 H   0  0  0  0  0  0  0  0  0  0  0  0
  1  2  1  0  0  0  0
  2  3  2  0  0  0  0
  2 33  1  0  0  0  0
  3  4  1  0  0  0  0
  3 34  1  0  0  0  0
  4  5  1  0  0  0  0
  4 19  2  0  0  0  0
  5  6  1  0  0  0  0
  5 35  1  0  0  0  0
  5 36  1  0  0  0  0
  6  7  2  0  0  0  0
  6  8  1  0  0  0  0
  8  9  1  0  0  0  0
  8 37  1  0  0  0  0
  9 10  2  0  0  0  0
  9 18  1  0  0  0  0
 10 11  1  0  0  0  0
 10 38  1  0  0  0  0
 11 12  2  0  0  0  0
 12 13  1  0  0  0  0
 12 39  1  0  0  0  0
 13 14  2  0  0  0  0
 13 18  1  0  0  0  0
 14 15  1  0  0  0  0
 14 40  1  0  0  0  0
 15 16  2  0  0  0  0
 15 41  1  0  0  0  0
 16 17  1  0  0  0  0
 16 42  1  0  0  0  0
 17 18  2  0  0  0  0
 17 43  1  0  0  0  0
 19 20  1  0  0  0  0
 19 44  1  0  0  0  0
 20 21  1  0  0  0  0
 20 33  2  0  0  0  0
 21 22  1  0  0  0  0
 21 45  1  0  0  0  0
 22 23  2  0  0  0  0
 22 32  1  0  0  0  0
 23 24  1  0  0  0  0
 23 25  1  0  0  0  0
 25 26  2  0  0  0  0
 25 30  1  0  0  0  0
 26 27  1  0  0  0  0
 27 28  2  0  0  0  0
 27 46  1  0  0  0  0
 28 29  1  0  0  0  0
 28 47  1  0  0  0  0
 29 30  2  0  0  0  0
 30 31  1  0  0  0  0
 31 32  2  0  0  0  0
 31 48  1  0  0  0  0
 32 49  1  0  0  0  0
 33 50  1  0  0  0  0
M  END
$$$$
