
 OpenBabel07202414143D

 57 60  0  0  0  0  0  0  0  0999 V2000
    9.1367   -0.1530   -0.8062 C   0  0  0  0  0  0  0  0  0  0  0  0
    7.9092    0.3554   -0.2882 O   0  0  0  0  0  0  0  0  0  0  0  0
    7.1175    1.0240   -1.1906 C   0  0  0  0  0  0  0  0  0  0  0  0
    6.1700    1.9122   -0.6580 C   0  0  0  0  0  0  0  0  0  0  0  0
    5.9164    1.9580    0.7280 N   0  0  0  0  0  0  0  0  0  0  0  0
    5.3327    2.6248   -1.5279 C   0  0  0  0  0  0  0  0  0  0  0  0
    5.4922    2.5730   -2.9214 C   0  0  0  0  0  0  0  0  0  0  0  0
    4.7068    3.4293   -3.7858 N   0  0  0  0  0  0  0  0  0  0  0  0
    4.2561    4.6767   -3.3245 C   0  0  0  0  0  0  0  0  0  0  0  0
    3.1133    5.3256   -4.0755 C   0  0  0  0  0  0  0  0  0  0  0  0
    4.6884    5.2574   -2.3237 O   0  0  0  0  0  0  0  0  0  0  0  0
    4.6273    3.0569   -5.1616 C   0  0  0  0  0  0  0  0  0  0  0  0
    4.1564    1.7777   -5.5177 C   0  0  0  0  0  0  0  0  0  0  0  0
    4.1515    1.3571   -6.8565 C   0  0  0  0  0  0  0  0  0  0  0  0
    3.6641   -0.0211   -7.2293 C   0  0  0  0  0  0  0  0  0  0  0  0
    4.3700   -1.1578   -6.5127 C   0  0  0  0  0  0  0  0  0  0  0  0
    3.7255   -1.9879   -5.8766 O   0  0  0  0  0  0  0  0  0  0  0  0
    5.7526   -1.1690   -6.6725 N   0  0  0  0  0  0  0  0  0  0  0  0
    6.5432   -2.1948   -6.0892 C   0  0  0  0  0  0  0  0  0  0  0  0
    7.6059   -1.8234   -5.2695 C   0  0  0  0  0  0  0  0  0  0  0  0
    8.3523   -2.6813   -4.5426 N   0  0  0  0  0  0  0  0  0  0  0  0
    8.0418   -3.9914   -4.6743 C   0  0  0  0  0  0  0  0  0  0  0  0
    7.0743   -4.4987   -5.5468 C   0  0  0  0  0  0  0  0  0  0  0  0
    6.8725   -5.8834   -5.7050 C   0  0  0  0  0  0  0  0  0  0  0  0
    5.9526   -6.3679   -6.6340 C   0  0  0  0  0  0  0  0  0  0  0  0
    5.2211   -5.4763   -7.4093 C   0  0  0  0  0  0  0  0  0  0  0  0
    5.3945   -4.1023   -7.2401 C   0  0  0  0  0  0  0  0  0  0  0  0
    6.3086   -3.5767   -6.2946 C   0  0  0  0  0  0  0  0  0  0  0  0
    4.5844    2.2458   -7.8479 C   0  0  0  0  0  0  0  0  0  0  0  0
    5.0308    3.5202   -7.5014 C   0  0  0  0  0  0  0  0  0  0  0  0
    5.5837    4.5845   -8.7350 Cl  0  0  0  0  0  0  0  0  0  0  0  0
    5.0552    3.9315   -6.1640 C   0  0  0  0  0  0  0  0  0  0  0  0
    6.4512    1.6791   -3.4249 C   0  0  0  0  0  0  0  0  0  0  0  0
    7.2303    0.8918   -2.5723 C   0  0  0  0  0  0  0  0  0  0  0  0
    9.8121   -0.3266    0.0362 H   0  0  0  0  0  0  0  0  0  0  0  0
    9.6321    0.5632   -1.4724 H   0  0  0  0  0  0  0  0  0  0  0  0
    8.9702   -1.1079   -1.3150 H   0  0  0  0  0  0  0  0  0  0  0  0
    6.7378    1.6642    1.2534 H   0  0  0  0  0  0  0  0  0  0  0  0
    5.5461    2.8513    1.0369 H   0  0  0  0  0  0  0  0  0  0  0  0
    4.5519    3.2396   -1.0880 H   0  0  0  0  0  0  0  0  0  0  0  0
    2.7246    4.7281   -4.8993 H   0  0  0  0  0  0  0  0  0  0  0  0
    3.4426    6.2976   -4.4516 H   0  0  0  0  0  0  0  0  0  0  0  0
    2.2897    5.4728   -3.3687 H   0  0  0  0  0  0  0  0  0  0  0  0
    3.7889    1.1087   -4.7387 H   0  0  0  0  0  0  0  0  0  0  0  0
    3.7709   -0.1997   -8.3056 H   0  0  0  0  0  0  0  0  0  0  0  0
    2.5924   -0.0827   -7.0024 H   0  0  0  0  0  0  0  0  0  0  0  0
    6.1763   -0.2502   -6.7290 H   0  0  0  0  0  0  0  0  0  0  0  0
    7.8708   -0.7807   -5.1341 H   0  0  0  0  0  0  0  0  0  0  0  0
    8.6339   -4.6565   -4.0492 H   0  0  0  0  0  0  0  0  0  0  0  0
    7.4475   -6.5957   -5.1174 H   0  0  0  0  0  0  0  0  0  0  0  0
    5.8149   -7.4378   -6.7615 H   0  0  0  0  0  0  0  0  0  0  0  0
    4.5113   -5.8441   -8.1449 H   0  0  0  0  0  0  0  0  0  0  0  0
    4.8091   -3.4368   -7.8691 H   0  0  0  0  0  0  0  0  0  0  0  0
    4.5732    1.9471   -8.8948 H   0  0  0  0  0  0  0  0  0  0  0  0
    5.4547    4.9102   -5.9178 H   0  0  0  0  0  0  0  0  0  0  0  0
    6.6476    1.5951   -4.4885 H   0  0  0  0  0  0  0  0  0  0  0  0
    7.9339    0.1927   -3.0095 H   0  0  0  0  0  0  0  0  0  0  0  0
  1  2  1  0  0  0  0
  1 35  1  0  0  0  0
  1 36  1  0  0  0  0
  1 37  1  0  0  0  0
  2  3  1  0  0  0  0
  3  4  2  0  0  0  0
  3 34  1  0  0  0  0
  4  5  1  0  0  0  0
  4  6  1  0  0  0  0
  5 38  1  0  0  0  0
  5 39  1  0  0  0  0
  6  7  2  0  0  0  0
  6 40  1  0  0  0  0
  7  8  1  0  0  0  0
  7 33  1  0  0  0  0
  8  9  1  0  0  0  0
  8 12  1  0  0  0  0
  9 10  1  0  0  0  0
  9 11  2  0  0  0  0
 10 41  1  0  0  0  0
 10 42  1  0  0  0  0
 10 43  1  0  0  0  0
 12 13  2  0  0  0  0
 12 32  1  0  0  0  0
 13 14  1  0  0  0  0
 13 44  1  0  0  0  0
 14 15  1  0  0  0  0
 14 29  2  0  0  0  0
 15 16  1  0  0  0  0
 15 45  1  0  0  0  0
 15 46  1  0  0  0  0
 16 17  2  0  0  0  0
 16 18  1  0  0  0  0
 18 19  1  0  0  0  0
 18 47  1  0  0  0  0
 19 20  2  0  0  0  0
 19 28  1  0  0  0  0
 20 21  1  0  0  0  0
 20 48  1  0  0  0  0
 21 22  2  0  0  0  0
 22 23  1  0  0  0  0
 22 49  1  0  0  0  0
 23 24  2  0  0  0  0
 23 28  1  0  0  0  0
 24 25  1  0  0  0  0
 24 50  1  0  0  0  0
 25 26  2  0  0  0  0
 25 51  1  0  0  0  0
 26 27  1  0  0  0  0
 26 52  1  0  0  0  0
 27 28  2  0  0  0  0
 27 53  1  0  0  0  0
 29 30  1  0  0  0  0
 29 54  1  0  0  0  0
 30 31  1  0  0  0  0
 30 32  2  0  0  0  0
 32 55  1  0  0  0  0
 33 34  2  0  0  0  0
 33 56  1  0  0  0  0
 34 57  1  0  0  0  0
M  END
$$$$
