
 OpenBabel07202414143D

 53 57  0  0  1  0  0  0  0  0999 V2000
    7.7501   -0.3683    1.9341 C   0  0  0  0  0  0  0  0  0  0  0  0
    6.5917    0.4398    1.6623 N   0  0  0  0  0  0  0  0  0  0  0  0
    5.9059    0.3522    0.4716 C   0  0  0  0  0  0  0  0  0  0  0  0
    6.2278   -0.4146   -0.4336 O   0  0  0  0  0  0  0  0  0  0  0  0
    4.6608    1.2467    0.3793 C   0  0  0  0  0  0  0  0  0  0  0  0
    4.9376    2.6860    0.4489 N   0  0  0  0  0  0  0  0  0  0  0  0
    5.4419    3.3333   -0.7488 C   0  0  0  0  0  0  0  0  0  0  0  0
    5.2355    4.8585   -0.8242 C   0  0  3  0  0  0  0  0  0  0  0  0
    6.2821    5.4020   -1.8199 C   0  0  0  0  0  0  0  0  0  0  0  0
    5.5392    6.2341   -2.8355 C   0  0  0  0  0  0  0  0  0  0  0  0
    4.1349    6.1738   -2.5086 N   0  0  0  0  0  0  0  0  0  0  0  0
    3.3006    7.3050   -2.8506 C   0  0  0  0  0  0  0  0  0  0  0  0
    2.3688    7.7912   -1.9318 C   0  0  0  0  0  0  0  0  0  0  0  0
    1.8659    9.0499   -1.9456 N   0  0  0  0  0  0  0  0  0  0  0  0
    2.2101    9.8340   -2.9852 C   0  0  0  0  0  0  0  0  0  0  0  0
    2.9257    9.3896   -4.0911 C   0  0  0  0  0  0  0  0  0  0  0  0
    3.0454   10.1949   -5.2356 C   0  0  0  0  0  0  0  0  0  0  0  0
    3.7252    9.7222   -6.3532 C   0  0  0  0  0  0  0  0  0  0  0  0
    3.7601   10.4588   -7.4708 F   0  0  0  0  0  0  0  0  0  0  0  0
    4.3175    8.4756   -6.3352 C   0  0  0  0  0  0  0  0  0  0  0  0
    4.2003    7.6732   -5.1955 C   0  0  0  0  0  0  0  0  0  0  0  0
    3.5016    8.0945   -4.0317 C   0  0  0  0  0  0  0  0  0  0  0  0
    3.8847    5.2780   -1.4513 C   0  0  0  0  0  0  0  0  0  0  0  0
    2.7826    4.9535   -1.0111 O   0  0  0  0  0  0  0  0  0  0  0  0
    5.3780    5.5086    0.5491 C   0  0  0  0  0  0  0  0  0  0  0  0
    5.4720    6.9109    0.6756 C   0  0  0  0  0  0  0  0  0  0  0  0
    5.6291    7.5111    1.9241 C   0  0  0  0  0  0  0  0  0  0  0  0
    5.7526    9.2216    2.0345 Cl  0  0  0  0  0  0  0  0  0  0  0  0
    5.6942    6.7318    3.0713 C   0  0  0  0  0  0  0  0  0  0  0  0
    5.5659    5.3464    2.9719 C   0  0  0  0  0  0  0  0  0  0  0  0
    5.3849    4.7328    1.7210 C   0  0  0  0  0  0  0  0  0  0  0  0
    5.1474    3.2626    1.6922 C   0  0  0  0  0  0  0  0  0  0  0  0
    5.1448    2.6133    2.7344 O   0  0  0  0  0  0  0  0  0  0  0  0
    8.0942   -0.1665    2.9511 H   0  0  0  0  0  0  0  0  0  0  0  0
    8.5365   -0.1179    1.2169 H   0  0  0  0  0  0  0  0  0  0  0  0
    7.4913   -1.4258    1.8296 H   0  0  0  0  0  0  0  0  0  0  0  0
    6.2181    1.0562    2.3867 H   0  0  0  0  0  0  0  0  0  0  0  0
    3.9810    0.9703    1.1927 H   0  0  0  0  0  0  0  0  0  0  0  0
    4.1479    1.0391   -0.5659 H   0  0  0  0  0  0  0  0  0  0  0  0
    5.0099    2.8463   -1.6305 H   0  0  0  0  0  0  0  0  0  0  0  0
    6.5191    3.1071   -0.7484 H   0  0  0  0  0  0  0  0  0  0  0  0
    6.7996    4.5970   -2.3576 H   0  0  0  0  0  0  0  0  0  0  0  0
    7.0790    5.9827   -1.3416 H   0  0  0  0  0  0  0  0  0  0  0  0
    5.6926    5.7896   -3.8205 H   0  0  0  0  0  0  0  0  0  0  0  0
    5.9062    7.2674   -2.8273 H   0  0  0  0  0  0  0  0  0  0  0  0
    2.0252    7.2083   -1.0825 H   0  0  0  0  0  0  0  0  0  0  0  0
    1.8653   10.8634   -2.9093 H   0  0  0  0  0  0  0  0  0  0  0  0
    2.5747   11.1715   -5.2964 H   0  0  0  0  0  0  0  0  0  0  0  0
    4.8413    8.1148   -7.2165 H   0  0  0  0  0  0  0  0  0  0  0  0
    4.6093    6.6708   -5.2678 H   0  0  0  0  0  0  0  0  0  0  0  0
    5.4142    7.5536   -0.2004 H   0  0  0  0  0  0  0  0  0  0  0  0
    5.8271    7.1931    4.0461 H   0  0  0  0  0  0  0  0  0  0  0  0
    5.5913    4.7442    3.8796 H   0  0  0  0  0  0  0  0  0  0  0  0
  1  2  1  0  0  0  0
  1 34  1  0  0  0  0
  1 35  1  0  0  0  0
  1 36  1  0  0  0  0
  2  3  1  0  0  0  0
  2 37  1  0  0  0  0
  3  4  2  0  0  0  0
  3  5  1  0  0  0  0
  5  6  1  0  0  0  0
  5 38  1  0  0  0  0
  5 39  1  0  0  0  0
  6  7  1  0  0  0  0
  6 32  1  0  0  0  0
  7  8  1  0  0  0  0
  7 40  1  0  0  0  0
  7 41  1  0  0  0  0
  8  9  1  0  0  0  0
  8 23  1  0  0  0  0
  8 25  1  0  0  0  0
  9 10  1  0  0  0  0
  9 42  1  0  0  0  0
  9 43  1  0  0  0  0
 10 11  1  0  0  0  0
 10 44  1  0  0  0  0
 10 45  1  0  0  0  0
 11 12  1  0  0  0  0
 11 23  1  0  0  0  0
 12 13  1  0  0  0  0
 12 22  2  0  0  0  0
 13 14  2  0  0  0  0
 13 46  1  0  0  0  0
 14 15  1  0  0  0  0
 15 16  2  0  0  0  0
 15 47  1  0  0  0  0
 16 17  1  0  0  0  0
 16 22  1  0  0  0  0
 17 18  2  0  0  0  0
 17 48  1  0  0  0  0
 18 19  1  0  0  0  0
 18 20  1  0  0  0  0
 20 21  2  0  0  0  0
 20 49  1  0  0  0  0
 21 22  1  0  0  0  0
 21 50  1  0  0  0  0
 23 24  2  0  0  0  0
 25 26  1  0  0  0  0
 25 31  2  0  0  0  0
 26 27  2  0  0  0  0
 26 51  1  0  0  0  0
 27 28  1  0  0  0  0
 27 29  1  0  0  0  0
 29 30  2  0  0  0  0
 29 52  1  0  0  0  0
 30 31  1  0  0  0  0
 30 53  1  0  0  0  0
 31 32  1  0  0  0  0
 32 33  2  0  0  0  0
M  END
$$$$
