
 OpenBabel07202414173D

 49 53  0  0  1  0  0  0  0  0999 V2000
    0.9325    0.0769   -0.0130 Cl  0  0  0  0  0  0  0  0  0  0  0  0
    2.6487    0.0258    0.0640 C   0  0  0  0  0  0  0  0  0  0  0  0
    3.3857    1.1906   -0.0876 C   0  0  0  0  0  0  0  0  0  0  0  0
    4.7841    1.1463   -0.0268 C   0  0  0  0  0  0  0  0  0  0  0  0
    5.4817   -0.0537    0.1939 C   0  0  0  0  0  0  0  0  0  0  0  0
    4.7057   -1.2260    0.3648 C   0  0  0  0  0  0  0  0  0  0  0  0
    3.2994   -1.1800    0.2923 C   0  0  0  0  0  0  0  0  0  0  0  0
    5.3671   -2.5573    0.6845 C   0  0  3  0  0  0  0  0  0  0  0  0
    5.3029   -2.9495    2.1726 C   0  0  0  0  0  0  0  0  0  0  0  0
    5.3481   -4.1362    2.5066 O   0  0  0  0  0  0  0  0  0  0  0  0
    5.3117   -1.8794    3.0532 N   0  0  0  0  0  0  0  0  0  0  0  0
    5.2134   -1.8938    4.4674 C   0  0  0  0  0  0  0  0  0  0  0  0
    5.0820   -3.0695    5.2055 C   0  0  0  0  0  0  0  0  0  0  0  0
    4.7988   -3.1084    6.5266 N   0  0  0  0  0  0  0  0  0  0  0  0
    4.7160   -1.9232    7.1637 C   0  0  0  0  0  0  0  0  0  0  0  0
    4.9899   -0.6912    6.5714 C   0  0  0  0  0  0  0  0  0  0  0  0
    5.0664    0.4834    7.3441 C   0  0  0  0  0  0  0  0  0  0  0  0
    5.3612    1.7087    6.7507 C   0  0  0  0  0  0  0  0  0  0  0  0
    5.5371    1.7801    5.3766 C   0  0  0  0  0  0  0  0  0  0  0  0
    5.4566    0.6202    4.5992 C   0  0  0  0  0  0  0  0  0  0  0  0
    5.2165   -0.6563    5.1766 C   0  0  0  0  0  0  0  0  0  0  0  0
    6.8112   -2.5619    0.1890 C   0  0  0  0  0  0  0  0  0  0  0  0
    7.5444   -1.3291    0.6866 C   0  0  0  0  0  0  0  0  0  0  0  0
    6.8689   -0.0987    0.2711 N   0  0  0  0  0  0  0  0  0  0  0  0
    7.7077    0.9928   -0.2703 C   0  0  0  0  0  0  0  0  0  0  0  0
    8.0988    2.0657    0.6871 C   0  0  0  0  0  0  0  0  0  0  0  0
    8.3518    3.3330    0.4536 N   0  0  0  0  0  0  0  0  0  0  0  0
    8.7212    3.8206    1.6763 C   0  0  0  0  0  0  0  0  0  0  0  0
    8.6923    2.9296    2.6734 N   0  0  0  0  0  0  0  0  0  0  0  0
    8.2897    1.8195    2.0210 N   0  0  0  0  0  0  0  0  0  0  0  0
    2.8859    2.1426   -0.2528 H   0  0  0  0  0  0  0  0  0  0  0  0
    5.3095    2.0921   -0.1413 H   0  0  0  0  0  0  0  0  0  0  0  0
    2.7134   -2.0891    0.4218 H   0  0  0  0  0  0  0  0  0  0  0  0
    4.8230   -3.3423    0.1416 H   0  0  0  0  0  0  0  0  0  0  0  0
    5.2342   -0.9631    2.6297 H   0  0  0  0  0  0  0  0  0  0  0  0
    5.1880   -4.0536    4.7622 H   0  0  0  0  0  0  0  0  0  0  0  0
    4.4239   -1.9932    8.2064 H   0  0  0  0  0  0  0  0  0  0  0  0
    4.9324    0.4419    8.4224 H   0  0  0  0  0  0  0  0  0  0  0  0
    5.4598    2.6011    7.3612 H   0  0  0  0  0  0  0  0  0  0  0  0
    5.7556    2.7359    4.9049 H   0  0  0  0  0  0  0  0  0  0  0  0
    5.6204    0.7414    3.5339 H   0  0  0  0  0  0  0  0  0  0  0  0
    6.8197   -2.5696   -0.9089 H   0  0  0  0  0  0  0  0  0  0  0  0
    7.3345   -3.4660    0.5218 H   0  0  0  0  0  0  0  0  0  0  0  0
    8.5760   -1.3591    0.3123 H   0  0  0  0  0  0  0  0  0  0  0  0
    7.6232   -1.3355    1.7789 H   0  0  0  0  0  0  0  0  0  0  0  0
    7.2233    1.4527   -1.1420 H   0  0  0  0  0  0  0  0  0  0  0  0
    8.6347    0.5714   -0.6790 H   0  0  0  0  0  0  0  0  0  0  0  0
    9.0200    4.8471    1.8485 H   0  0  0  0  0  0  0  0  0  0  0  0
    8.1719    0.9545    2.5313 H   0  0  0  0  0  0  0  0  0  0  0  0
  1  2  1  0  0  0  0
  2  3  1  0  0  0  0
  2  7  2  0  0  0  0
  3  4  2  0  0  0  0
  3 31  1  0  0  0  0
  4  5  1  0  0  0  0
  4 32  1  0  0  0  0
  5  6  2  0  0  0  0
  5 24  1  0  0  0  0
  6  7  1  0  0  0  0
  6  8  1  0  0  0  0
  7 33  1  0  0  0  0
  8  9  1  0  0  0  0
  8 22  1  0  0  0  0
  8 34  1  0  0  0  0
  9 10  2  0  0  0  0
  9 11  1  0  0  0  0
 11 12  1  0  0  0  0
 11 35  1  0  0  0  0
 12 13  1  0  0  0  0
 12 21  2  0  0  0  0
 13 14  2  0  0  0  0
 13 36  1  0  0  0  0
 14 15  1  0  0  0  0
 15 16  2  0  0  0  0
 15 37  1  0  0  0  0
 16 17  1  0  0  0  0
 16 21  1  0  0  0  0
 17 18  2  0  0  0  0
 17 38  1  0  0  0  0
 18 19  1  0  0  0  0
 18 39  1  0  0  0  0
 19 20  2  0  0  0  0
 19 40  1  0  0  0  0
 20 21  1  0  0  0  0
 20 41  1  0  0  0  0
 22 23  1  0  0  0  0
 22 42  1  0  0  0  0
 22 43  1  0  0  0  0
 23 24  1  0  0  0  0
 23 44  1  0  0  0  0
 23 45  1  0  0  0  0
 24 25  1  0  0  0  0
 25 26  1  0  0  0  0
 25 46  1  0  0  0  0
 25 47  1  0  0  0  0
 26 27  2  0  0  0  0
 26 30  1  0  0  0  0
 27 28  1  0  0  0  0
 28 29  2  0  0  0  0
 28 48  1  0  0  0  0
 29 30  1  0  0  0  0
 30 49  1  0  0  0  0
M  END
$$$$
