
 OpenBabel07202414143D

 83 86  0  0  1  0  0  0  0  0999 V2000
    9.6878    3.0325    5.0719 C   0  0  0  0  0  0  0  0  0  0  0  0
    9.3816    1.6407    5.0025 O   0  0  0  0  0  0  0  0  0  0  0  0
    8.0553    1.3247    5.1163 C   0  0  0  0  0  0  0  0  0  0  0  0
    7.1443    2.1282    5.2509 O   0  0  0  0  0  0  0  0  0  0  0  0
    7.9067   -0.1900    4.9797 C   0  0  2  0  0  0  0  0  0  0  0  0
    7.1551   -0.4824    3.6750 C   0  0  0  0  0  0  0  0  0  0  0  0
    6.7315   -1.9445    3.8203 C   0  0  1  0  0  0  0  0  0  0  0  0
    7.7100   -2.8274    3.1920 N   0  0  0  0  0  0  0  0  0  0  0  0
    7.6438   -3.0528    1.8327 C   0  0  0  0  0  0  0  0  0  0  0  0
    6.7728   -2.5126    1.1429 O   0  0  0  0  0  0  0  0  0  0  0  0
    8.6464   -4.0462    1.1900 C   0  0  3  0  0  0  0  0  0  0  0  0
   10.0459   -3.5081    1.1204 N   0  0  0  0  0  0  0  0  0  0  0  0
   11.1015   -3.6668    2.0454 C   0  0  0  0  0  0  0  0  0  0  0  0
   12.2366   -3.2335    1.8299 O   0  0  0  0  0  0  0  0  0  0  0  0
   10.9095   -4.4067    3.2862 C   0  0  0  0  0  0  0  0  0  0  0  0
   11.9156   -5.1416    3.8893 C   0  0  0  0  0  0  0  0  0  0  0  0
   11.3951   -5.7573    4.9828 O   0  0  0  0  0  0  0  0  0  0  0  0
   10.1038   -5.3248    5.0166 C   0  0  0  0  0  0  0  0  0  0  0  0
    9.7629   -4.4900    4.0561 N   0  0  0  0  0  0  0  0  0  0  0  0
   10.3491   -2.7098   -0.0476 C   0  0  0  0  0  0  0  0  0  0  0  0
   11.4565   -3.0272   -0.8385 C   0  0  0  0  0  0  0  0  0  0  0  0
   11.8793   -2.1831   -1.8739 C   0  0  0  0  0  0  0  0  0  0  0  0
   11.2155   -0.9828   -2.1607 C   0  0  0  0  0  0  0  0  0  0  0  0
   11.7291    0.0049   -3.2292 C   0  0  0  0  0  0  0  0  0  0  0  0
   12.9908   -0.4997   -3.9702 C   0  0  0  0  0  0  0  0  0  0  0  0
   10.6421    0.2565   -4.2938 C   0  0  0  0  0  0  0  0  0  0  0  0
   12.1060    1.3567   -2.5808 C   0  0  0  0  0  0  0  0  0  0  0  0
   10.0618   -0.7045   -1.4028 C   0  0  0  0  0  0  0  0  0  0  0  0
    9.6253   -1.5597   -0.3709 C   0  0  0  0  0  0  0  0  0  0  0  0
    8.4321   -5.4962    1.6292 C   0  0  0  0  0  0  0  0  0  0  0  0
    9.4187   -6.4874    1.5569 C   0  0  0  0  0  0  0  0  0  0  0  0
    9.1765   -7.7585    2.0790 C   0  0  0  0  0  0  0  0  0  0  0  0
    7.9188   -8.0379    2.5806 C   0  0  0  0  0  0  0  0  0  0  0  0
    6.9061   -7.1517    2.5731 N   0  0  0  0  0  0  0  0  0  0  0  0
    7.1792   -5.9170    2.0904 C   0  0  0  0  0  0  0  0  0  0  0  0
    6.5520   -2.1268    5.3340 C   0  0  0  0  0  0  0  0  0  0  0  0
    7.1085   -0.9324    5.9454 N   0  0  0  0  0  0  0  0  0  0  0  0
    7.1321   -0.8200    7.3154 C   0  0  0  0  0  0  0  0  0  0  0  0
    6.6702   -1.6877    8.0432 O   0  0  0  0  0  0  0  0  0  0  0  0
    7.6390    0.3649    7.7456 O   0  0  0  0  0  0  0  0  0  0  0  0
    7.4887    0.7294    9.1481 C   0  0  0  0  0  0  0  0  0  0  0  0
    8.3254   -0.1932   10.0414 C   0  0  0  0  0  0  0  0  0  0  0  0
    8.0361    2.1612    9.2807 C   0  0  0  0  0  0  0  0  0  0  0  0
    6.0122    0.7631    9.5794 C   0  0  0  0  0  0  0  0  0  0  0  0
   10.7515    3.1296    5.3101 H   0  0  0  0  0  0  0  0  0  0  0  0
    9.1144    3.5375    5.8540 H   0  0  0  0  0  0  0  0  0  0  0  0
    9.5072    3.4920    4.0963 H   0  0  0  0  0  0  0  0  0  0  0  0
    8.8993   -0.6597    4.9648 H   0  0  0  0  0  0  0  0  0  0  0  0
    7.7559   -0.2721    2.7855 H   0  0  0  0  0  0  0  0  0  0  0  0
    6.2499    0.1386    3.6149 H   0  0  0  0  0  0  0  0  0  0  0  0
    5.7690   -2.1187    3.3224 H   0  0  0  0  0  0  0  0  0  0  0  0
    8.4146   -3.3218    3.7452 H   0  0  0  0  0  0  0  0  0  0  0  0
    8.3235   -4.0933    0.1364 H   0  0  0  0  0  0  0  0  0  0  0  0
   12.9463   -5.3480    3.6491 H   0  0  0  0  0  0  0  0  0  0  0  0
    9.4945   -5.7135    5.8212 H   0  0  0  0  0  0  0  0  0  0  0  0
   12.0318   -3.9294   -0.6446 H   0  0  0  0  0  0  0  0  0  0  0  0
   12.7654   -2.4890   -2.4223 H   0  0  0  0  0  0  0  0  0  0  0  0
   12.7995   -1.4448   -4.4916 H   0  0  0  0  0  0  0  0  0  0  0  0
   13.8280   -0.6545   -3.2785 H   0  0  0  0  0  0  0  0  0  0  0  0
   13.3289    0.2225   -4.7225 H   0  0  0  0  0  0  0  0  0  0  0  0
   10.3376   -0.6786   -4.7771 H   0  0  0  0  0  0  0  0  0  0  0  0
   11.0075    0.9324   -5.0767 H   0  0  0  0  0  0  0  0  0  0  0  0
    9.7453    0.7184   -3.8670 H   0  0  0  0  0  0  0  0  0  0  0  0
   12.9019    1.2343   -1.8369 H   0  0  0  0  0  0  0  0  0  0  0  0
   11.2544    1.8306   -2.0815 H   0  0  0  0  0  0  0  0  0  0  0  0
   12.4696    2.0647   -3.3366 H   0  0  0  0  0  0  0  0  0  0  0  0
    9.4959    0.2074   -1.5808 H   0  0  0  0  0  0  0  0  0  0  0  0
    8.7627   -1.2457    0.2082 H   0  0  0  0  0  0  0  0  0  0  0  0
   10.4004   -6.2765    1.1423 H   0  0  0  0  0  0  0  0  0  0  0  0
    9.9569   -8.5110    2.1054 H   0  0  0  0  0  0  0  0  0  0  0  0
    7.6829   -9.0089    3.0064 H   0  0  0  0  0  0  0  0  0  0  0  0
    6.3137   -5.2567    2.0961 H   0  0  0  0  0  0  0  0  0  0  0  0
    7.0617   -3.0160    5.7193 H   0  0  0  0  0  0  0  0  0  0  0  0
    5.4931   -2.1823    5.6101 H   0  0  0  0  0  0  0  0  0  0  0  0
    9.3773   -0.1738    9.7348 H   0  0  0  0  0  0  0  0  0  0  0  0
    8.0043   -1.2362    9.9764 H   0  0  0  0  0  0  0  0  0  0  0  0
    8.2638    0.1047   11.0934 H   0  0  0  0  0  0  0  0  0  0  0  0
    9.0878    2.2132    8.9785 H   0  0  0  0  0  0  0  0  0  0  0  0
    7.9563    2.5266   10.3112 H   0  0  0  0  0  0  0  0  0  0  0  0
    7.4885    2.8532    8.6303 H   0  0  0  0  0  0  0  0  0  0  0  0
    5.5487   -0.2268    9.5688 H   0  0  0  0  0  0  0  0  0  0  0  0
    5.4240    1.3933    8.9026 H   0  0  0  0  0  0  0  0  0  0  0  0
    5.9044    1.1565   10.5970 H   0  0  0  0  0  0  0  0  0  0  0  0
  1  2  1  0  0  0  0
  1 45  1  0  0  0  0
  1 46  1  0  0  0  0
  1 47  1  0  0  0  0
  2  3  1  0  0  0  0
  3  4  2  0  0  0  0
  3  5  1  0  0  0  0
  5  6  1  0  0  0  0
  5 37  1  0  0  0  0
  5 48  1  6  0  0  0
  6  7  1  0  0  0  0
  6 49  1  0  0  0  0
  6 50  1  0  0  0  0
  7  8  1  0  0  0  0
  7 36  1  0  0  0  0
  7 51  1  6  0  0  0
  8  9  1  0  0  0  0
  8 52  1  0  0  0  0
  9 10  2  0  0  0  0
  9 11  1  0  0  0  0
 11 12  1  0  0  0  0
 11 30  1  0  0  0  0
 11 53  1  0  0  0  0
 12 13  1  0  0  0  0
 12 20  1  0  0  0  0
 13 14  2  0  0  0  0
 13 15  1  0  0  0  0
 15 16  2  0  0  0  0
 15 19  1  0  0  0  0
 16 17  1  0  0  0  0
 16 54  1  0  0  0  0
 17 18  1  0  0  0  0
 18 19  2  0  0  0  0
 18 55  1  0  0  0  0
 20 21  1  0  0  0  0
 20 29  2  0  0  0  0
 21 22  2  0  0  0  0
 21 56  1  0  0  0  0
 22 23  1  0  0  0  0
 22 57  1  0  0  0  0
 23 24  1  0  0  0  0
 23 28  2  0  0  0  0
 24 25  1  0  0  0  0
 24 26  1  0  0  0  0
 24 27  1  0  0  0  0
 25 58  1  0  0  0  0
 25 59  1  0  0  0  0
 25 60  1  0  0  0  0
 26 61  1  0  0  0  0
 26 62  1  0  0  0  0
 26 63  1  0  0  0  0
 27 64  1  0  0  0  0
 27 65  1  0  0  0  0
 27 66  1  0  0  0  0
 28 29  1  0  0  0  0
 28 67  1  0  0  0  0
 29 68  1  0  0  0  0
 30 31  1  0  0  0  0
 30 35  2  0  0  0  0
 31 32  2  0  0  0  0
 31 69  1  0  0  0  0
 32 33  1  0  0  0  0
 32 70  1  0  0  0  0
 33 34  2  0  0  0  0
 33 71  1  0  0  0  0
 34 35  1  0  0  0  0
 35 72  1  0  0  0  0
 36 37  1  0  0  0  0
 36 73  1  0  0  0  0
 36 74  1  0  0  0  0
 37 38  1  0  0  0  0
 38 39  2  0  0  0  0
 38 40  1  0  0  0  0
 40 41  1  0  0  0  0
 41 42  1  0  0  0  0
 41 43  1  0  0  0  0
 41 44  1  0  0  0  0
 42 75  1  0  0  0  0
 42 76  1  0  0  0  0
 42 77  1  0  0  0  0
 43 78  1  0  0  0  0
 43 79  1  0  0  0  0
 43 80  1  0  0  0  0
 44 81  1  0  0  0  0
 44 82  1  0  0  0  0
 44 83  1  0  0  0  0
M  END
$$$$
