
 OpenBabel07202414153D

 44 47  0  0  0  0  0  0  0  0999 V2000
    6.8745    3.9128   -0.7314 C   0  0  0  0  0  0  0  0  0  0  0  0
    5.8781    2.9868   -1.1513 O   0  0  0  0  0  0  0  0  0  0  0  0
    4.9087    2.6842   -0.2270 C   0  0  0  0  0  0  0  0  0  0  0  0
    4.5433    3.5442    0.8163 C   0  0  0  0  0  0  0  0  0  0  0  0
    3.4988    3.2043    1.6781 C   0  0  0  0  0  0  0  0  0  0  0  0
    2.7956    2.0187    1.4809 C   0  0  0  0  0  0  0  0  0  0  0  0
    3.1160    1.1725    0.4209 C   0  0  0  0  0  0  0  0  0  0  0  0
    4.1862    1.4903   -0.4268 C   0  0  0  0  0  0  0  0  0  0  0  0
    4.5486    0.5795   -1.4415 N   0  0  0  0  0  0  0  0  0  0  0  0
    5.7984    0.0236   -1.5669 C   0  0  0  0  0  0  0  0  0  0  0  0
    6.7739    0.1576   -0.8379 O   0  0  0  0  0  0  0  0  0  0  0  0
    5.7700   -0.9350   -2.7461 C   0  0  0  0  0  0  0  0  0  0  0  0
    4.4463   -0.7088   -3.2640 N   0  0  0  0  0  0  0  0  0  0  0  0
    3.7114    0.1421   -2.4413 C   0  0  0  0  0  0  0  0  0  0  0  0
    2.5495    0.4648   -2.6424 O   0  0  0  0  0  0  0  0  0  0  0  0
    3.9714   -1.2837   -4.5093 C   0  0  0  0  0  0  0  0  0  0  0  0
    3.2901   -2.6002   -4.2561 C   0  0  0  0  0  0  0  0  0  0  0  0
    1.9554   -2.6289   -4.0767 C   0  0  0  0  0  0  0  0  0  0  0  0
    1.2119   -3.8729   -3.7917 C   0  0  0  0  0  0  0  0  0  0  0  0
   -0.0012   -3.8609   -3.6190 O   0  0  0  0  0  0  0  0  0  0  0  0
    1.9468   -5.0188   -3.7267 N   0  0  0  0  0  0  0  0  0  0  0  0
    3.3264   -5.0681   -3.9545 C   0  0  0  0  0  0  0  0  0  0  0  0
    4.0341   -3.8848   -4.2405 C   0  0  0  0  0  0  0  0  0  0  0  0
    5.4076   -3.9965   -4.5007 C   0  0  0  0  0  0  0  0  0  0  0  0
    6.0520   -5.2399   -4.4512 C   0  0  0  0  0  0  0  0  0  0  0  0
    5.3334   -6.3927   -4.1499 C   0  0  0  0  0  0  0  0  0  0  0  0
    3.9661   -6.3097   -3.9040 C   0  0  0  0  0  0  0  0  0  0  0  0
    1.5376    1.5896    2.5736 Cl  0  0  0  0  0  0  0  0  0  0  0  0
    7.6640    3.9236   -1.4885 H   0  0  0  0  0  0  0  0  0  0  0  0
    7.3235    3.6085    0.2201 H   0  0  0  0  0  0  0  0  0  0  0  0
    6.4669    4.9272   -0.6688 H   0  0  0  0  0  0  0  0  0  0  0  0
    5.0400    4.4965    0.9736 H   0  0  0  0  0  0  0  0  0  0  0  0
    3.2354    3.8733    2.4937 H   0  0  0  0  0  0  0  0  0  0  0  0
    2.5645    0.2447    0.2881 H   0  0  0  0  0  0  0  0  0  0  0  0
    5.8595   -1.9656   -2.3944 H   0  0  0  0  0  0  0  0  0  0  0  0
    6.5239   -0.6701   -3.4871 H   0  0  0  0  0  0  0  0  0  0  0  0
    4.8023   -1.3568   -5.2176 H   0  0  0  0  0  0  0  0  0  0  0  0
    3.2628   -0.5737   -4.9548 H   0  0  0  0  0  0  0  0  0  0  0  0
    1.3484   -1.7291   -4.0988 H   0  0  0  0  0  0  0  0  0  0  0  0
    1.4281   -5.8615   -3.5226 H   0  0  0  0  0  0  0  0  0  0  0  0
    6.0123   -3.1309   -4.7510 H   0  0  0  0  0  0  0  0  0  0  0  0
    7.1194   -5.3054   -4.6504 H   0  0  0  0  0  0  0  0  0  0  0  0
    5.8363   -7.3561   -4.1131 H   0  0  0  0  0  0  0  0  0  0  0  0
    3.4090   -7.2153   -3.6806 H   0  0  0  0  0  0  0  0  0  0  0  0
  1  2  1  0  0  0  0
  1 29  1  0  0  0  0
  1 30  1  0  0  0  0
  1 31  1  0  0  0  0
  2  3  1  0  0  0  0
  3  4  1  0  0  0  0
  3  8  2  0  0  0  0
  4  5  2  0  0  0  0
  4 32  1  0  0  0  0
  5  6  1  0  0  0  0
  5 33  1  0  0  0  0
  6  7  2  0  0  0  0
  6 28  1  0  0  0  0
  7  8  1  0  0  0  0
  7 34  1  0  0  0  0
  8  9  1  0  0  0  0
  9 10  1  0  0  0  0
  9 14  1  0  0  0  0
 10 11  2  0  0  0  0
 10 12  1  0  0  0  0
 12 13  1  0  0  0  0
 12 35  1  0  0  0  0
 12 36  1  0  0  0  0
 13 14  1  0  0  0  0
 13 16  1  0  0  0  0
 14 15  2  0  0  0  0
 16 17  1  0  0  0  0
 16 37  1  0  0  0  0
 16 38  1  0  0  0  0
 17 18  2  0  0  0  0
 17 23  1  0  0  0  0
 18 19  1  0  0  0  0
 18 39  1  0  0  0  0
 19 20  2  0  0  0  0
 19 21  1  0  0  0  0
 21 22  1  0  0  0  0
 21 40  1  0  0  0  0
 22 23  1  0  0  0  0
 22 27  2  0  0  0  0
 23 24  2  0  0  0  0
 24 25  1  0  0  0  0
 24 41  1  0  0  0  0
 25 26  2  0  0  0  0
 25 42  1  0  0  0  0
 26 27  1  0  0  0  0
 26 43  1  0  0  0  0
 27 44  1  0  0  0  0
M  END
$$$$
