
 OpenBabel07202414133D

 34 35  0  0  1  0  0  0  0  0999 V2000
    0.8201    0.2135   -0.0800 C   0  0  0  0  0  0  0  0  0  0  0  0
    2.3470    0.0598   -0.1744 C   0  0  3  0  0  0  0  0  0  0  0  0
    2.9264    1.0690   -1.2008 C   0  0  3  0  0  0  0  0  0  0  0  0
    2.6040    0.6673   -2.6394 C   0  0  0  0  0  0  0  0  0  0  0  0
    3.0211   -0.7759   -2.9068 C   0  0  0  0  0  0  0  0  0  0  0  0
    2.4910   -1.7420   -1.8435 C   0  0  0  0  0  0  0  0  0  0  0  0
    2.8445   -1.3150   -0.4785 N   0  0  0  0  0  0  0  0  0  0  0  0
    2.3787   -2.2853    0.5357 C   0  0  0  0  0  0  0  0  0  0  0  0
    2.9718   -3.6758    0.4245 C   0  0  0  0  0  0  0  0  0  0  0  0
    4.3567   -3.8866    0.4812 C   0  0  0  0  0  0  0  0  0  0  0  0
    4.8806   -5.1805    0.4098 C   0  0  0  0  0  0  0  0  0  0  0  0
    4.0277   -6.2756    0.2878 C   0  0  0  0  0  0  0  0  0  0  0  0
    2.6498   -6.0810    0.2378 C   0  0  0  0  0  0  0  0  0  0  0  0
    2.1254   -4.7901    0.3077 C   0  0  0  0  0  0  0  0  0  0  0  0
    4.3494    1.1276   -1.0469 O   0  0  0  0  0  0  0  0  0  0  0  0
    0.5599    1.2513    0.1567 H   0  0  0  0  0  0  0  0  0  0  0  0
    0.3973   -0.4036    0.7181 H   0  0  0  0  0  0  0  0  0  0  0  0
    0.3134   -0.0477   -1.0136 H   0  0  0  0  0  0  0  0  0  0  0  0
    2.7663    0.3341    0.8036 H   0  0  0  0  0  0  0  0  0  0  0  0
    2.5450    2.0775   -1.0057 H   0  0  0  0  0  0  0  0  0  0  0  0
    3.1292    1.3243   -3.3425 H   0  0  0  0  0  0  0  0  0  0  0  0
    1.5306    0.7789   -2.8313 H   0  0  0  0  0  0  0  0  0  0  0  0
    4.1161   -0.8383   -2.9430 H   0  0  0  0  0  0  0  0  0  0  0  0
    2.6593   -1.0840   -3.8946 H   0  0  0  0  0  0  0  0  0  0  0  0
    2.9336   -2.7210   -2.0611 H   0  0  0  0  0  0  0  0  0  0  0  0
    1.4057   -1.8537   -1.9536 H   0  0  0  0  0  0  0  0  0  0  0  0
    1.2863   -2.3729    0.5018 H   0  0  0  0  0  0  0  0  0  0  0  0
    2.6320   -1.9157    1.5386 H   0  0  0  0  0  0  0  0  0  0  0  0
    5.0316   -3.0398    0.5810 H   0  0  0  0  0  0  0  0  0  0  0  0
    5.9558   -5.3330    0.4530 H   0  0  0  0  0  0  0  0  0  0  0  0
    4.4363   -7.2810    0.2343 H   0  0  0  0  0  0  0  0  0  0  0  0
    1.9821   -6.9341    0.1497 H   0  0  0  0  0  0  0  0  0  0  0  0
    1.0469   -4.6586    0.2753 H   0  0  0  0  0  0  0  0  0  0  0  0
    4.6292    0.2036   -0.8912 H   0  0  0  0  0  0  0  0  0  0  0  0
  1  2  1  0  0  0  0
  1 16  1  0  0  0  0
  1 17  1  0  0  0  0
  1 18  1  0  0  0  0
  2  3  1  0  0  0  0
  2  7  1  0  0  0  0
  2 19  1  0  0  0  0
  3  4  1  0  0  0  0
  3 15  1  0  0  0  0
  3 20  1  0  0  0  0
  4  5  1  0  0  0  0
  4 21  1  0  0  0  0
  4 22  1  0  0  0  0
  5  6  1  0  0  0  0
  5 23  1  0  0  0  0
  5 24  1  0  0  0  0
  6  7  1  0  0  0  0
  6 25  1  0  0  0  0
  6 26  1  0  0  0  0
  7  8  1  0  0  0  0
  8  9  1  0  0  0  0
  8 27  1  0  0  0  0
  8 28  1  0  0  0  0
  9 10  1  0  0  0  0
  9 14  2  0  0  0  0
 10 11  2  0  0  0  0
 10 29  1  0  0  0  0
 11 12  1  0  0  0  0
 11 30  1  0  0  0  0
 12 13  2  0  0  0  0
 12 31  1  0  0  0  0
 13 14  1  0  0  0  0
 13 32  1  0  0  0  0
 14 33  1  0  0  0  0
 15 34  1  0  0  0  0
M  END
$$$$
