
 OpenBabel07202414153D

 48 51  0  0  0  0  0  0  0  0999 V2000
    2.2909    2.0322    2.8130 C   0  0  0  0  0  0  0  0  0  0  0  0
    3.5143    1.7828    2.1349 O   0  0  0  0  0  0  0  0  0  0  0  0
    3.5421    2.0585    0.7952 C   0  0  0  0  0  0  0  0  0  0  0  0
    2.4627    2.4555    0.0145 C   0  0  0  0  0  0  0  0  0  0  0  0
    2.6521    2.7090   -1.3424 C   0  0  0  0  0  0  0  0  0  0  0  0
    3.9215    2.5721   -1.9165 C   0  0  0  0  0  0  0  0  0  0  0  0
    5.0326    2.1839   -1.1573 C   0  0  0  0  0  0  0  0  0  0  0  0
    4.8019    1.9164    0.2010 C   0  0  0  0  0  0  0  0  0  0  0  0
    6.2978    2.0983   -1.6983 N   0  0  0  0  0  0  0  0  0  0  0  0
    7.4946    2.4457   -0.9075 C   0  0  0  0  0  0  0  0  0  0  0  0
    8.3063    3.5131   -1.6670 C   0  0  0  0  0  0  0  0  0  0  0  0
    8.6553    3.0300   -2.9947 N   0  0  0  0  0  0  0  0  0  0  0  0
    7.4730    2.6861   -3.8045 C   0  0  0  0  0  0  0  0  0  0  0  0
    6.5589    1.6723   -3.0870 C   0  0  0  0  0  0  0  0  0  0  0  0
    9.8975    2.6478   -3.4421 C   0  0  0  0  0  0  0  0  0  0  0  0
   10.0054    2.0489   -4.5180 O   0  0  0  0  0  0  0  0  0  0  0  0
   11.1625    2.9980   -2.6766 C   0  0  0  0  0  0  0  0  0  0  0  0
   12.1014    3.2625   -3.6145 C   0  0  0  0  0  0  0  0  0  0  0  0
   13.0425    2.1348   -3.9215 C   0  0  0  0  0  0  0  0  0  0  0  0
   13.6240    2.0810   -4.9964 O   0  0  0  0  0  0  0  0  0  0  0  0
   13.1988    1.1686   -2.9664 N   0  0  0  0  0  0  0  0  0  0  0  0
   12.6191    1.2649   -1.6954 C   0  0  0  0  0  0  0  0  0  0  0  0
   11.6353    2.2387   -1.4918 C   0  0  0  0  0  0  0  0  0  0  0  0
   11.2774    2.5218   -0.1665 C   0  0  0  0  0  0  0  0  0  0  0  0
   11.7952    1.7686    0.8954 C   0  0  0  0  0  0  0  0  0  0  0  0
   12.6961    0.7341    0.6478 C   0  0  0  0  0  0  0  0  0  0  0  0
   13.1156    0.4797   -0.6546 C   0  0  0  0  0  0  0  0  0  0  0  0
    2.4613    1.8634    3.8806 H   0  0  0  0  0  0  0  0  0  0  0  0
    1.5139    1.3352    2.4816 H   0  0  0  0  0  0  0  0  0  0  0  0
    1.9703    3.0719    2.6894 H   0  0  0  0  0  0  0  0  0  0  0  0
    1.4677    2.5760    0.4274 H   0  0  0  0  0  0  0  0  0  0  0  0
    1.8150    3.0299   -1.9562 H   0  0  0  0  0  0  0  0  0  0  0  0
    4.0302    2.8217   -2.9684 H   0  0  0  0  0  0  0  0  0  0  0  0
    5.6163    1.5671    0.8308 H   0  0  0  0  0  0  0  0  0  0  0  0
    8.0937    1.5361   -0.7572 H   0  0  0  0  0  0  0  0  0  0  0  0
    7.2484    2.8525    0.0790 H   0  0  0  0  0  0  0  0  0  0  0  0
    9.1845    3.8202   -1.1164 H   0  0  0  0  0  0  0  0  0  0  0  0
    7.6968    4.4160   -1.8016 H   0  0  0  0  0  0  0  0  0  0  0  0
    7.7516    2.2924   -4.7873 H   0  0  0  0  0  0  0  0  0  0  0  0
    6.9283    3.6215   -3.9747 H   0  0  0  0  0  0  0  0  0  0  0  0
    7.0562    0.6942   -3.0538 H   0  0  0  0  0  0  0  0  0  0  0  0
    5.6447    1.5334   -3.6740 H   0  0  0  0  0  0  0  0  0  0  0  0
   11.8579    3.7895   -4.5360 H   0  0  0  0  0  0  0  0  0  0  0  0
   13.8600    0.4346   -3.1831 H   0  0  0  0  0  0  0  0  0  0  0  0
   10.6402    3.3583    0.0923 H   0  0  0  0  0  0  0  0  0  0  0  0
   11.5149    2.0074    1.9200 H   0  0  0  0  0  0  0  0  0  0  0  0
   13.1120    0.1638    1.4769 H   0  0  0  0  0  0  0  0  0  0  0  0
   13.8688   -0.2792   -0.8324 H   0  0  0  0  0  0  0  0  0  0  0  0
  1  2  1  0  0  0  0
  1 28  1  0  0  0  0
  1 29  1  0  0  0  0
  1 30  1  0  0  0  0
  2  3  1  0  0  0  0
  3  4  1  0  0  0  0
  3  8  2  0  0  0  0
  4  5  2  0  0  0  0
  4 31  1  0  0  0  0
  5  6  1  0  0  0  0
  5 32  1  0  0  0  0
  6  7  2  0  0  0  0
  6 33  1  0  0  0  0
  7  8  1  0  0  0  0
  7  9  1  0  0  0  0
  8 34  1  0  0  0  0
  9 10  1  0  0  0  0
  9 14  1  0  0  0  0
 10 11  1  0  0  0  0
 10 35  1  0  0  0  0
 10 36  1  0  0  0  0
 11 12  1  0  0  0  0
 11 37  1  0  0  0  0
 11 38  1  0  0  0  0
 12 13  1  0  0  0  0
 12 15  1  0  0  0  0
 13 14  1  0  0  0  0
 13 39  1  0  0  0  0
 13 40  1  0  0  0  0
 14 41  1  0  0  0  0
 14 42  1  0  0  0  0
 15 16  2  0  0  0  0
 15 17  1  0  0  0  0
 17 18  2  0  0  0  0
 17 23  1  0  0  0  0
 18 19  1  0  0  0  0
 18 43  1  0  0  0  0
 19 20  2  0  0  0  0
 19 21  1  0  0  0  0
 21 22  1  0  0  0  0
 21 44  1  0  0  0  0
 22 23  1  0  0  0  0
 22 27  2  0  0  0  0
 23 24  2  0  0  0  0
 24 25  1  0  0  0  0
 24 45  1  0  0  0  0
 25 26  2  0  0  0  0
 25 46  1  0  0  0  0
 26 27  1  0  0  0  0
 26 47  1  0  0  0  0
 27 48  1  0  0  0  0
M  END
$$$$
