
 OpenBabel07202414143D

 57 60  0  0  1  0  0  0  0  0999 V2000
    4.7217   -3.1939    1.4514 C   0  0  0  0  0  0  0  0  0  0  0  0
    4.3461   -1.8049    1.5226 N   0  0  0  0  0  0  0  0  0  0  0  0
    5.1195   -0.8352    0.9160 C   0  0  0  0  0  0  0  0  0  0  0  0
    6.1072   -1.0962    0.2354 O   0  0  0  0  0  0  0  0  0  0  0  0
    4.6429    0.5983    1.1565 C   0  0  0  0  0  0  0  0  0  0  0  0
    5.3361    1.2566    2.3014 N   0  0  0  0  0  0  0  0  0  0  0  0
    5.0005    0.6082    3.5855 C   0  0  0  0  0  0  0  0  0  0  0  0
    5.6786    1.2847    4.7894 C   0  0  3  0  0  0  0  0  0  0  0  0
    7.1730    0.9537    4.9427 C   0  0  0  0  0  0  0  0  0  0  0  0
    7.6614    0.9008    6.0724 O   0  0  0  0  0  0  0  0  0  0  0  0
    7.8695    0.7798    3.7597 N   0  0  0  0  0  0  0  0  0  0  0  0
    9.2722    0.5977    3.6012 C   0  0  0  0  0  0  0  0  0  0  0  0
   10.1621    0.6439    4.6768 C   0  0  0  0  0  0  0  0  0  0  0  0
   11.5116    0.6485    4.5656 N   0  0  0  0  0  0  0  0  0  0  0  0
   12.0095    0.5398    3.3194 C   0  0  0  0  0  0  0  0  0  0  0  0
   11.2383    0.3566    2.1747 C   0  0  0  0  0  0  0  0  0  0  0  0
   11.8549    0.1095    0.9355 C   0  0  0  0  0  0  0  0  0  0  0  0
   11.0954   -0.1440   -0.2151 C   0  0  0  0  0  0  0  0  0  0  0  0
   11.7816   -0.5161   -1.5055 C   0  0  0  0  0  0  0  0  0  0  0  0
   12.5573   -1.6959   -1.2889 O   0  0  0  0  0  0  0  0  0  0  0  0
   13.2441   -2.1055   -2.4626 C   0  0  0  0  0  0  0  0  0  0  0  0
    9.7087   -0.0841   -0.1158 C   0  0  0  0  0  0  0  0  0  0  0  0
    9.0890    0.1913    1.1116 C   0  0  0  0  0  0  0  0  0  0  0  0
    9.8305    0.3963    2.3011 C   0  0  0  0  0  0  0  0  0  0  0  0
    5.4250    2.7755    4.7979 C   0  0  0  0  0  0  0  0  0  0  0  0
    5.4717    3.4997    6.0017 C   0  0  0  0  0  0  0  0  0  0  0  0
    5.2116    4.8687    6.0091 C   0  0  0  0  0  0  0  0  0  0  0  0
    5.2141    5.7357    7.4953 Cl  0  0  0  0  0  0  0  0  0  0  0  0
    4.9274    5.5353    4.8217 C   0  0  0  0  0  0  0  0  0  0  0  0
    4.8834    4.8227    3.6217 C   0  0  0  0  0  0  0  0  0  0  0  0
    5.1217    3.4374    3.5977 C   0  0  0  0  0  0  0  0  0  0  0  0
    4.9251    2.6833    2.3003 C   0  0  0  0  0  0  0  0  0  0  0  0
    3.9513   -3.7908    1.9449 H   0  0  0  0  0  0  0  0  0  0  0  0
    5.6820   -3.3308    1.9559 H   0  0  0  0  0  0  0  0  0  0  0  0
    4.8147   -3.4926    0.4038 H   0  0  0  0  0  0  0  0  0  0  0  0
    3.6160   -1.5325    2.1674 H   0  0  0  0  0  0  0  0  0  0  0  0
    3.5536    0.6027    1.2910 H   0  0  0  0  0  0  0  0  0  0  0  0
    4.8536    1.1474    0.2295 H   0  0  0  0  0  0  0  0  0  0  0  0
    5.3246   -0.4384    3.5725 H   0  0  0  0  0  0  0  0  0  0  0  0
    3.9117    0.6125    3.7318 H   0  0  0  0  0  0  0  0  0  0  0  0
    5.1923    0.8557    5.6775 H   0  0  0  0  0  0  0  0  0  0  0  0
    7.3277    0.8870    2.9055 H   0  0  0  0  0  0  0  0  0  0  0  0
    9.8302    0.6942    5.7072 H   0  0  0  0  0  0  0  0  0  0  0  0
   13.0940    0.5879    3.2664 H   0  0  0  0  0  0  0  0  0  0  0  0
   12.9389    0.0565    0.8640 H   0  0  0  0  0  0  0  0  0  0  0  0
   12.4340    0.3071   -1.8190 H   0  0  0  0  0  0  0  0  0  0  0  0
   11.0473   -0.7042   -2.2984 H   0  0  0  0  0  0  0  0  0  0  0  0
   13.8320   -2.9968   -2.2246 H   0  0  0  0  0  0  0  0  0  0  0  0
   13.9259   -1.3202   -2.8021 H   0  0  0  0  0  0  0  0  0  0  0  0
   12.5341   -2.3591   -3.2555 H   0  0  0  0  0  0  0  0  0  0  0  0
    9.0796   -0.2878   -0.9841 H   0  0  0  0  0  0  0  0  0  0  0  0
    8.0048    0.1858    1.1234 H   0  0  0  0  0  0  0  0  0  0  0  0
    5.6992    2.9900    6.9367 H   0  0  0  0  0  0  0  0  0  0  0  0
    4.7251    6.6033    4.8254 H   0  0  0  0  0  0  0  0  0  0  0  0
    4.6375    5.3529    2.7035 H   0  0  0  0  0  0  0  0  0  0  0  0
    5.4901    3.1967    1.5120 H   0  0  0  0  0  0  0  0  0  0  0  0
    3.8561    2.7669    2.0597 H   0  0  0  0  0  0  0  0  0  0  0  0
  1  2  1  0  0  0  0
  1 33  1  0  0  0  0
  1 34  1  0  0  0  0
  1 35  1  0  0  0  0
  2  3  1  0  0  0  0
  2 36  1  0  0  0  0
  3  4  2  0  0  0  0
  3  5  1  0  0  0  0
  5  6  1  0  0  0  0
  5 37  1  0  0  0  0
  5 38  1  0  0  0  0
  6  7  1  0  0  0  0
  6 32  1  0  0  0  0
  7  8  1  0  0  0  0
  7 39  1  0  0  0  0
  7 40  1  0  0  0  0
  8  9  1  0  0  0  0
  8 25  1  0  0  0  0
  8 41  1  0  0  0  0
  9 10  2  0  0  0  0
  9 11  1  0  0  0  0
 11 12  1  0  0  0  0
 11 42  1  0  0  0  0
 12 13  1  0  0  0  0
 12 24  2  0  0  0  0
 13 14  2  0  0  0  0
 13 43  1  0  0  0  0
 14 15  1  0  0  0  0
 15 16  2  0  0  0  0
 15 44  1  0  0  0  0
 16 17  1  0  0  0  0
 16 24  1  0  0  0  0
 17 18  2  0  0  0  0
 17 45  1  0  0  0  0
 18 19  1  0  0  0  0
 18 22  1  0  0  0  0
 19 20  1  0  0  0  0
 19 46  1  0  0  0  0
 19 47  1  0  0  0  0
 20 21  1  0  0  0  0
 21 48  1  0  0  0  0
 21 49  1  0  0  0  0
 21 50  1  0  0  0  0
 22 23  2  0  0  0  0
 22 51  1  0  0  0  0
 23 24  1  0  0  0  0
 23 52  1  0  0  0  0
 25 26  1  0  0  0  0
 25 31  2  0  0  0  0
 26 27  2  0  0  0  0
 26 53  1  0  0  0  0
 27 28  1  0  0  0  0
 27 29  1  0  0  0  0
 29 30  2  0  0  0  0
 29 54  1  0  0  0  0
 30 31  1  0  0  0  0
 30 55  1  0  0  0  0
 31 32  1  0  0  0  0
 32 56  1  0  0  0  0
 32 57  1  0  0  0  0
M  END
$$$$
