
 OpenBabel07202414153D

 57 60  0  0  1  0  0  0  0  0999 V2000
    0.9790    0.6152    0.8022 C   0  0  0  0  0  0  0  0  0  0  0  0
    2.3955    0.7407    0.7600 O   0  0  0  0  0  0  0  0  0  0  0  0
    2.7956    1.8177   -0.0875 C   0  0  0  0  0  0  0  0  0  0  0  0
    4.3166    1.9124   -0.0873 C   0  0  0  0  0  0  0  0  0  0  0  0
    4.8019    3.0623   -0.9771 C   0  0  0  0  0  0  0  0  0  0  0  0
    6.2653    3.0483   -0.9975 N   0  0  0  0  0  0  0  0  0  0  0  0
    6.8517    4.1408   -1.7938 C   0  0  0  0  0  0  0  0  0  0  0  0
    8.4332    4.2209   -1.7797 C   0  0  3  0  0  0  0  0  0  0  0  0
    8.8429    5.3794   -2.7651 C   0  0  0  0  0  0  0  0  0  0  0  0
    7.9941    5.9893   -3.4128 O   0  0  0  0  0  0  0  0  0  0  0  0
   10.2093    5.6439   -2.8382 N   0  0  0  0  0  0  0  0  0  0  0  0
   10.8820    6.5526   -3.7054 C   0  0  0  0  0  0  0  0  0  0  0  0
   10.2108    7.3811   -4.6155 C   0  0  0  0  0  0  0  0  0  0  0  0
   10.8113    8.1046   -5.5873 N   0  0  0  0  0  0  0  0  0  0  0  0
   12.1599    8.0598   -5.6317 C   0  0  0  0  0  0  0  0  0  0  0  0
   12.9489    7.4046   -4.6911 C   0  0  0  0  0  0  0  0  0  0  0  0
   14.3520    7.5358   -4.7182 C   0  0  0  0  0  0  0  0  0  0  0  0
   15.1374    6.9131   -3.7486 C   0  0  0  0  0  0  0  0  0  0  0  0
   14.5334    6.1342   -2.7770 C   0  0  0  0  0  0  0  0  0  0  0  0
   13.1420    5.9847   -2.7523 C   0  0  0  0  0  0  0  0  0  0  0  0
   12.3064    6.6253   -3.7015 C   0  0  0  0  0  0  0  0  0  0  0  0
    9.0470    2.8912   -2.2861 C   0  0  0  0  0  0  0  0  0  0  0  0
    9.1347    1.8293   -1.1961 C   0  0  0  0  0  0  0  0  0  0  0  0
    9.8893    2.2646   -0.0735 O   0  0  0  0  0  0  0  0  0  0  0  0
    9.5613    3.5038    0.3987 C   0  0  0  0  0  0  0  0  0  0  0  0
    9.9655    3.7499    1.7138 C   0  0  0  0  0  0  0  0  0  0  0  0
    9.8072    5.0143    2.2748 C   0  0  0  0  0  0  0  0  0  0  0  0
    9.2519    6.0341    1.5108 C   0  0  0  0  0  0  0  0  0  0  0  0
    9.1282    7.6192    2.1676 Cl  0  0  0  0  0  0  0  0  0  0  0  0
    8.8074    5.7850    0.2100 C   0  0  0  0  0  0  0  0  0  0  0  0
    8.9456    4.5058   -0.3653 C   0  0  0  0  0  0  0  0  0  0  0  0
    0.7216   -0.2094    1.4733 H   0  0  0  0  0  0  0  0  0  0  0  0
    0.5861    0.3910   -0.1936 H   0  0  0  0  0  0  0  0  0  0  0  0
    0.5245    1.5336    1.1877 H   0  0  0  0  0  0  0  0  0  0  0  0
    2.3608    2.7526    0.2817 H   0  0  0  0  0  0  0  0  0  0  0  0
    2.4340    1.6277   -1.1038 H   0  0  0  0  0  0  0  0  0  0  0  0
    4.7347    0.9539   -0.4247 H   0  0  0  0  0  0  0  0  0  0  0  0
    4.6755    2.0453    0.9420 H   0  0  0  0  0  0  0  0  0  0  0  0
    4.4252    4.0144   -0.5896 H   0  0  0  0  0  0  0  0  0  0  0  0
    4.4169    2.9240   -1.9948 H   0  0  0  0  0  0  0  0  0  0  0  0
    6.5277    2.1580   -1.4119 H   0  0  0  0  0  0  0  0  0  0  0  0
    6.4426    5.0968   -1.4398 H   0  0  0  0  0  0  0  0  0  0  0  0
    6.5144    4.0175   -2.8320 H   0  0  0  0  0  0  0  0  0  0  0  0
   10.7978    5.0663   -2.2544 H   0  0  0  0  0  0  0  0  0  0  0  0
    9.1325    7.5079   -4.6029 H   0  0  0  0  0  0  0  0  0  0  0  0
   12.5983    8.5993   -6.4651 H   0  0  0  0  0  0  0  0  0  0  0  0
   14.8388    8.1581   -5.4654 H   0  0  0  0  0  0  0  0  0  0  0  0
   16.2169    7.0531   -3.7483 H   0  0  0  0  0  0  0  0  0  0  0  0
   15.1425    5.6447   -2.0105 H   0  0  0  0  0  0  0  0  0  0  0  0
   12.7303    5.3861   -1.9450 H   0  0  0  0  0  0  0  0  0  0  0  0
   10.0709    3.0593   -2.6416 H   0  0  0  0  0  0  0  0  0  0  0  0
    8.4872    2.5090   -3.1484 H   0  0  0  0  0  0  0  0  0  0  0  0
    9.6430    0.9477   -1.6025 H   0  0  0  0  0  0  0  0  0  0  0  0
    8.1759    1.4548   -0.8367 H   0  0  0  0  0  0  0  0  0  0  0  0
   10.4051    2.9473    2.3016 H   0  0  0  0  0  0  0  0  0  0  0  0
   10.1285    5.1959    3.2965 H   0  0  0  0  0  0  0  0  0  0  0  0
    8.3626    6.6013   -0.3567 H   0  0  0  0  0  0  0  0  0  0  0  0
  1  2  1  0  0  0  0
  1 32  1  0  0  0  0
  1 33  1  0  0  0  0
  1 34  1  0  0  0  0
  2  3  1  0  0  0  0
  3  4  1  0  0  0  0
  3 35  1  0  0  0  0
  3 36  1  0  0  0  0
  4  5  1  0  0  0  0
  4 37  1  0  0  0  0
  4 38  1  0  0  0  0
  5  6  1  0  0  0  0
  5 39  1  0  0  0  0
  5 40  1  0  0  0  0
  6  7  1  0  0  0  0
  6 41  1  0  0  0  0
  7  8  1  0  0  0  0
  7 42  1  0  0  0  0
  7 43  1  0  0  0  0
  8  9  1  0  0  0  0
  8 22  1  0  0  0  0
  8 31  1  0  0  0  0
  9 10  2  0  0  0  0
  9 11  1  0  0  0  0
 11 12  1  0  0  0  0
 11 44  1  0  0  0  0
 12 13  1  0  0  0  0
 12 21  2  0  0  0  0
 13 14  2  0  0  0  0
 13 45  1  0  0  0  0
 14 15  1  0  0  0  0
 15 16  2  0  0  0  0
 15 46  1  0  0  0  0
 16 17  1  0  0  0  0
 16 21  1  0  0  0  0
 17 18  2  0  0  0  0
 17 47  1  0  0  0  0
 18 19  1  0  0  0  0
 18 48  1  0  0  0  0
 19 20  2  0  0  0  0
 19 49  1  0  0  0  0
 20 21  1  0  0  0  0
 20 50  1  0  0  0  0
 22 23  1  0  0  0  0
 22 51  1  0  0  0  0
 22 52  1  0  0  0  0
 23 24  1  0  0  0  0
 23 53  1  0  0  0  0
 23 54  1  0  0  0  0
 24 25  1  0  0  0  0
 25 26  1  0  0  0  0
 25 31  2  0  0  0  0
 26 27  2  0  0  0  0
 26 55  1  0  0  0  0
 27 28  1  0  0  0  0
 27 56  1  0  0  0  0
 28 29  1  0  0  0  0
 28 30  2  0  0  0  0
 30 31  1  0  0  0  0
 30 57  1  0  0  0  0
M  END
$$$$
