
 OpenBabel07202414163D

 35 37  0  0  0  0  0  0  0  0999 V2000
    1.2250   -0.3823   -1.5638 C   0  0  0  0  0  0  0  0  0  0  0  0
    2.6605   -0.2373   -1.1499 C   0  0  0  0  0  0  0  0  0  0  0  0
    3.3405    1.0260   -1.4309 C   0  0  0  0  0  0  0  0  0  0  0  0
    4.6207    1.1891   -1.0472 C   0  0  0  0  0  0  0  0  0  0  0  0
    5.2924    0.1476   -0.4026 N   0  0  0  0  0  0  0  0  0  0  0  0
    6.6135    0.0144    0.0169 C   0  0  0  0  0  0  0  0  0  0  0  0
    7.6259    0.9670   -0.0184 N   0  0  0  0  0  0  0  0  0  0  0  0
    7.4320    2.2457    0.4847 C   0  0  0  0  0  0  0  0  0  0  0  0
    6.3914    2.6658    0.9832 O   0  0  0  0  0  0  0  0  0  0  0  0
    8.6739    3.1209    0.3743 C   0  0  0  0  0  0  0  0  0  0  0  0
    9.6960    2.9202    1.4708 C   0  0  0  0  0  0  0  0  0  0  0  0
    9.3668    3.1500    2.8148 C   0  0  0  0  0  0  0  0  0  0  0  0
   10.3325    3.0233    3.8193 C   0  0  0  0  0  0  0  0  0  0  0  0
   11.6407    2.6705    3.4930 C   0  0  0  0  0  0  0  0  0  0  0  0
   11.9783    2.4487    2.1598 C   0  0  0  0  0  0  0  0  0  0  0  0
   13.5999    2.0365    1.7486 Cl  0  0  0  0  0  0  0  0  0  0  0  0
   11.0195    2.5738    1.1526 C   0  0  0  0  0  0  0  0  0  0  0  0
    6.7302   -1.3095    0.3970 C   0  0  0  0  0  0  0  0  0  0  0  0
    5.5392   -1.9776    0.3056 N   0  0  0  0  0  0  0  0  0  0  0  0
    4.6894   -1.0931   -0.1740 C   0  0  0  0  0  0  0  0  0  0  0  0
    3.3195   -1.2431   -0.5355 C   0  0  0  0  0  0  0  0  0  0  0  0
    0.8168    0.5468   -1.9743 H   0  0  0  0  0  0  0  0  0  0  0  0
    0.6038   -0.6618   -0.7058 H   0  0  0  0  0  0  0  0  0  0  0  0
    1.1241   -1.1560   -2.3329 H   0  0  0  0  0  0  0  0  0  0  0  0
    2.8077    1.8129   -1.9523 H   0  0  0  0  0  0  0  0  0  0  0  0
    5.1711    2.0985   -1.2395 H   0  0  0  0  0  0  0  0  0  0  0  0
    8.5745    0.6139    0.0552 H   0  0  0  0  0  0  0  0  0  0  0  0
    8.3560    4.1707    0.3709 H   0  0  0  0  0  0  0  0  0  0  0  0
    9.1287    2.9421   -0.6081 H   0  0  0  0  0  0  0  0  0  0  0  0
    8.3554    3.4466    3.0928 H   0  0  0  0  0  0  0  0  0  0  0  0
   10.0667    3.2126    4.8567 H   0  0  0  0  0  0  0  0  0  0  0  0
   12.3905    2.5816    4.2758 H   0  0  0  0  0  0  0  0  0  0  0  0
   11.3165    2.4193    0.1184 H   0  0  0  0  0  0  0  0  0  0  0  0
    7.6136   -1.8099    0.7705 H   0  0  0  0  0  0  0  0  0  0  0  0
    2.8418   -2.1926   -0.3187 H   0  0  0  0  0  0  0  0  0  0  0  0
  1  2  1  0  0  0  0
  1 22  1  0  0  0  0
  1 23  1  0  0  0  0
  1 24  1  0  0  0  0
  2  3  1  0  0  0  0
  2 21  2  0  0  0  0
  3  4  2  0  0  0  0
  3 25  1  0  0  0  0
  4  5  1  0  0  0  0
  4 26  1  0  0  0  0
  5  6  1  0  0  0  0
  5 20  1  0  0  0  0
  6  7  1  0  0  0  0
  6 18  2  0  0  0  0
  7  8  1  0  0  0  0
  7 27  1  0  0  0  0
  8  9  2  0  0  0  0
  8 10  1  0  0  0  0
 10 11  1  0  0  0  0
 10 28  1  0  0  0  0
 10 29  1  0  0  0  0
 11 12  1  0  0  0  0
 11 17  2  0  0  0  0
 12 13  2  0  0  0  0
 12 30  1  0  0  0  0
 13 14  1  0  0  0  0
 13 31  1  0  0  0  0
 14 15  2  0  0  0  0
 14 32  1  0  0  0  0
 15 16  1  0  0  0  0
 15 17  1  0  0  0  0
 17 33  1  0  0  0  0
 18 19  1  0  0  0  0
 18 34  1  0  0  0  0
 19 20  2  0  0  0  0
 20 21  1  0  0  0  0
 21 35  1  0  0  0  0
M  END
$$$$
