
 OpenBabel07202414203D

 61 66  0  0  1  0  0  0  0  0999 V2000
    0.9645   -2.6880   -2.7386 O   0  0  0  0  0  0  0  0  0  0  0  0
    1.7933   -1.9274   -1.8715 C   0  0  3  0  0  0  0  0  0  0  0  0
    0.9479   -1.2960   -0.7535 C   0  0  0  0  0  0  0  0  0  0  0  0
    1.8368   -0.4373    0.1595 C   0  0  3  0  0  0  0  0  0  0  0  0
    2.5522    0.6470   -0.6500 C   0  0  0  0  0  0  0  0  0  0  0  0
    3.4148   -0.0069   -1.7407 C   0  0  3  0  0  0  0  0  0  0  0  0
    2.4993   -0.8186   -2.6692 C   0  0  0  0  0  0  0  0  0  0  0  0
    4.4501   -0.9548   -1.0943 C   0  0  0  0  0  0  0  0  0  0  0  0
    3.7392   -2.0697   -0.2699 C   0  0  3  0  0  0  0  0  0  0  0  0
    4.7736   -2.9572    0.3203 N   0  0  0  0  0  0  0  0  0  0  0  0
    4.5783   -3.6454    1.5179 C   0  0  0  0  0  0  0  0  0  0  0  0
    3.3328   -4.1636    1.9104 C   0  0  0  0  0  0  0  0  0  0  0  0
    3.0958   -4.6536    3.2007 C   0  0  0  0  0  0  0  0  0  0  0  0
    1.6948   -5.0386    3.6152 C   0  0  0  0  0  0  0  0  0  0  0  0
    0.6443   -3.9339    3.5337 C   0  0  0  0  0  0  0  0  0  0  0  0
   -0.4350   -4.1338    2.9788 O   0  0  0  0  0  0  0  0  0  0  0  0
    0.9852   -2.7447    4.1563 N   0  0  0  0  0  0  0  0  0  0  0  0
    0.0911   -1.6446    4.2813 C   0  0  0  0  0  0  0  0  0  0  0  0
   -1.2595   -1.8412    4.5914 C   0  0  0  0  0  0  0  0  0  0  0  0
   -2.1610   -0.8439    4.7682 N   0  0  0  0  0  0  0  0  0  0  0  0
   -1.7072    0.4129    4.5837 C   0  0  0  0  0  0  0  0  0  0  0  0
   -0.3954    0.7414    4.2385 C   0  0  0  0  0  0  0  0  0  0  0  0
   -0.0147    2.0724    3.9886 C   0  0  0  0  0  0  0  0  0  0  0  0
    1.2831    2.3786    3.5835 C   0  0  0  0  0  0  0  0  0  0  0  0
    2.2208    1.3599    3.4640 C   0  0  0  0  0  0  0  0  0  0  0  0
    1.8622    0.0430    3.7468 C   0  0  0  0  0  0  0  0  0  0  0  0
    0.5434   -0.3110    4.1150 C   0  0  0  0  0  0  0  0  0  0  0  0
    4.1809   -4.7910    4.0719 C   0  0  0  0  0  0  0  0  0  0  0  0
    5.4587   -4.4187    3.6426 C   0  0  0  0  0  0  0  0  0  0  0  0
    6.7987   -4.6361    4.7010 Cl  0  0  0  0  0  0  0  0  0  0  0  0
    5.6551   -3.8494    2.3846 C   0  0  0  0  0  0  0  0  0  0  0  0
    2.8957   -1.3325    0.8017 C   0  0  0  0  0  0  0  0  0  0  0  0
    2.8478   -2.8569   -1.2513 C   0  0  0  0  0  0  0  0  0  0  0  0
    0.2456   -2.1149   -3.0542 H   0  0  0  0  0  0  0  0  0  0  0  0
    0.4484   -2.0824   -0.1698 H   0  0  0  0  0  0  0  0  0  0  0  0
    0.1422   -0.6867   -1.1789 H   0  0  0  0  0  0  0  0  0  0  0  0
    1.2160    0.0250    0.9314 H   0  0  0  0  0  0  0  0  0  0  0  0
    3.1815    1.2529    0.0154 H   0  0  0  0  0  0  0  0  0  0  0  0
    1.8158    1.3242   -1.0964 H   0  0  0  0  0  0  0  0  0  0  0  0
    3.9310    0.7712   -2.3126 H   0  0  0  0  0  0  0  0  0  0  0  0
    3.0775   -1.2532   -3.4929 H   0  0  0  0  0  0  0  0  0  0  0  0
    1.7548   -0.1631   -3.1401 H   0  0  0  0  0  0  0  0  0  0  0  0
    5.1239   -0.3770   -0.4476 H   0  0  0  0  0  0  0  0  0  0  0  0
    5.0808   -1.4003   -1.8747 H   0  0  0  0  0  0  0  0  0  0  0  0
    5.7142   -2.5777    0.2372 H   0  0  0  0  0  0  0  0  0  0  0  0
    2.4958   -4.1440    1.2204 H   0  0  0  0  0  0  0  0  0  0  0  0
    1.6851   -5.4204    4.6434 H   0  0  0  0  0  0  0  0  0  0  0  0
    1.3673   -5.8618    2.9653 H   0  0  0  0  0  0  0  0  0  0  0  0
    1.9724   -2.5531    4.2521 H   0  0  0  0  0  0  0  0  0  0  0  0
   -1.6662   -2.8346    4.7508 H   0  0  0  0  0  0  0  0  0  0  0  0
   -2.4665    1.1835    4.7088 H   0  0  0  0  0  0  0  0  0  0  0  0
   -0.7394    2.8796    4.0775 H   0  0  0  0  0  0  0  0  0  0  0  0
    1.5568    3.4034    3.3527 H   0  0  0  0  0  0  0  0  0  0  0  0
    3.2287    1.5876    3.1217 H   0  0  0  0  0  0  0  0  0  0  0  0
    2.6260   -0.7185    3.6159 H   0  0  0  0  0  0  0  0  0  0  0  0
    4.0435   -5.2016    5.0643 H   0  0  0  0  0  0  0  0  0  0  0  0
    6.6555   -3.5428    2.0914 H   0  0  0  0  0  0  0  0  0  0  0  0
    3.5632   -0.7426    1.4441 H   0  0  0  0  0  0  0  0  0  0  0  0
    2.3583   -2.0117    1.4629 H   0  0  0  0  0  0  0  0  0  0  0  0
    2.3443   -3.7037   -0.7756 H   0  0  0  0  0  0  0  0  0  0  0  0
    3.4572   -3.3139   -2.0436 H   0  0  0  0  0  0  0  0  0  0  0  0
  1  2  1  0  0  0  0
  1 34  1  0  0  0  0
  2  3  1  0  0  0  0
  2  7  1  0  0  0  0
  2 33  1  0  0  0  0
  3  4  1  0  0  0  0
  3 35  1  0  0  0  0
  3 36  1  0  0  0  0
  4  5  1  0  0  0  0
  4 32  1  0  0  0  0
  4 37  1  0  0  0  0
  5  6  1  0  0  0  0
  5 38  1  0  0  0  0
  5 39  1  0  0  0  0
  6  7  1  0  0  0  0
  6  8  1  0  0  0  0
  6 40  1  0  0  0  0
  7 41  1  0  0  0  0
  7 42  1  0  0  0  0
  8  9  1  0  0  0  0
  8 43  1  0  0  0  0
  8 44  1  0  0  0  0
  9 10  1  0  0  0  0
  9 32  1  0  0  0  0
  9 33  1  0  0  0  0
 10 11  1  0  0  0  0
 10 45  1  0  0  0  0
 11 12  2  0  0  0  0
 11 31  1  0  0  0  0
 12 13  1  0  0  0  0
 12 46  1  0  0  0  0
 13 14  1  0  0  0  0
 13 28  2  0  0  0  0
 14 15  1  0  0  0  0
 14 47  1  0  0  0  0
 14 48  1  0  0  0  0
 15 16  2  0  0  0  0
 15 17  1  0  0  0  0
 17 18  1  0  0  0  0
 17 49  1  0  0  0  0
 18 19  2  0  0  0  0
 18 27  1  0  0  0  0
 19 20  1  0  0  0  0
 19 50  1  0  0  0  0
 20 21  2  0  0  0  0
 21 22  1  0  0  0  0
 21 51  1  0  0  0  0
 22 23  2  0  0  0  0
 22 27  1  0  0  0  0
 23 24  1  0  0  0  0
 23 52  1  0  0  0  0
 24 25  2  0  0  0  0
 24 53  1  0  0  0  0
 25 26  1  0  0  0  0
 25 54  1  0  0  0  0
 26 27  2  0  0  0  0
 26 55  1  0  0  0  0
 28 29  1  0  0  0  0
 28 56  1  0  0  0  0
 29 30  1  0  0  0  0
 29 31  2  0  0  0  0
 31 57  1  0  0  0  0
 32 58  1  0  0  0  0
 32 59  1  0  0  0  0
 33 60  1  0  0  0  0
 33 61  1  0  0  0  0
M  END
$$$$
