
 OpenBabel07202414203D

 50 54  0  0  1  0  0  0  0  0999 V2000
    5.3945    1.0543   -3.1731 C   0  0  0  0  0  0  0  0  0  0  0  0
    5.2148    2.3553   -2.7173 C   0  0  0  0  0  0  0  0  0  0  0  0
    3.9991    2.7442   -2.1323 C   0  0  0  0  0  0  0  0  0  0  0  0
    2.9182    1.8403   -1.9837 C   0  0  0  0  0  0  0  0  0  0  0  0
    3.1341    0.5185   -2.4691 C   0  0  0  0  0  0  0  0  0  0  0  0
    4.3556    0.1413   -3.0521 C   0  0  0  0  0  0  0  0  0  0  0  0
    2.1032   -0.4106   -2.3642 C   0  0  0  0  0  0  0  0  0  0  0  0
    0.9007   -0.1522   -1.8253 N   0  0  0  0  0  0  0  0  0  0  0  0
    0.7041    1.1106   -1.3764 C   0  0  0  0  0  0  0  0  0  0  0  0
    1.6437    2.1527   -1.4241 C   0  0  0  0  0  0  0  0  0  0  0  0
    1.3339    3.4492   -0.8859 N   0  0  0  0  0  0  0  0  0  0  0  0
    0.0409    3.9128   -0.7057 C   0  0  0  0  0  0  0  0  0  0  0  0
   -0.9482    3.3584   -1.1931 O   0  0  0  0  0  0  0  0  0  0  0  0
   -0.1840    5.1677    0.1362 C   0  0  3  0  0  0  0  0  0  0  0  0
    0.4300    5.0915    1.5294 C   0  0  0  0  0  0  0  0  0  0  0  0
   -0.1656    6.2420    2.3314 C   0  0  0  0  0  0  0  0  0  0  0  0
    0.2410    7.5156    1.7378 N   0  0  0  0  0  0  0  0  0  0  0  0
    0.1806    7.6671    0.3543 C   0  0  0  0  0  0  0  0  0  0  0  0
    0.0498    6.5318   -0.4971 C   0  0  0  0  0  0  0  0  0  0  0  0
   -0.0305    6.7000   -1.8923 C   0  0  0  0  0  0  0  0  0  0  0  0
   -0.0005    7.9759   -2.4501 C   0  0  0  0  0  0  0  0  0  0  0  0
    0.1159    9.0937   -1.6361 C   0  0  0  0  0  0  0  0  0  0  0  0
    0.2209    8.9352   -0.2518 C   0  0  0  0  0  0  0  0  0  0  0  0
   -0.1520    8.1744   -4.1518 Cl  0  0  0  0  0  0  0  0  0  0  0  0
    0.6376    8.5946    2.6516 C   0  0  0  0  0  0  0  0  0  0  0  0
   -0.4444    9.5097    3.1033 C   0  0  0  0  0  0  0  0  0  0  0  0
   -0.4335   10.6045    3.9429 C   0  0  0  0  0  0  0  0  0  0  0  0
   -1.7723   11.0345    3.9891 C   0  0  0  0  0  0  0  0  0  0  0  0
   -2.5717   10.2851    3.2293 N   0  0  0  0  0  0  0  0  0  0  0  0
   -1.7398    9.3766    2.6911 N   0  0  0  0  0  0  0  0  0  0  0  0
    6.3349    0.7537   -3.6309 H   0  0  0  0  0  0  0  0  0  0  0  0
    6.0227    3.0754   -2.8236 H   0  0  0  0  0  0  0  0  0  0  0  0
    3.9109    3.7772   -1.8089 H   0  0  0  0  0  0  0  0  0  0  0  0
    4.5032   -0.8743   -3.4214 H   0  0  0  0  0  0  0  0  0  0  0  0
    2.2189   -1.4284   -2.7292 H   0  0  0  0  0  0  0  0  0  0  0  0
   -0.2745    1.2352   -0.9284 H   0  0  0  0  0  0  0  0  0  0  0  0
    2.0933    4.1082   -0.7703 H   0  0  0  0  0  0  0  0  0  0  0  0
   -1.2758    5.1507    0.2935 H   0  0  0  0  0  0  0  0  0  0  0  0
    1.5234    5.1798    1.4930 H   0  0  0  0  0  0  0  0  0  0  0  0
    0.1912    4.1358    2.0089 H   0  0  0  0  0  0  0  0  0  0  0  0
    0.1540    6.1670    3.3761 H   0  0  0  0  0  0  0  0  0  0  0  0
   -1.2632    6.1846    2.3400 H   0  0  0  0  0  0  0  0  0  0  0  0
   -0.1641    5.8437   -2.5504 H   0  0  0  0  0  0  0  0  0  0  0  0
    0.1048   10.0937   -2.0626 H   0  0  0  0  0  0  0  0  0  0  0  0
    0.2856    9.8426    0.3440 H   0  0  0  0  0  0  0  0  0  0  0  0
    1.4531    9.1818    2.2104 H   0  0  0  0  0  0  0  0  0  0  0  0
    1.0832    8.1480    3.5509 H   0  0  0  0  0  0  0  0  0  0  0  0
    0.4164   11.0311    4.4560 H   0  0  0  0  0  0  0  0  0  0  0  0
   -2.1983   11.8589    4.5478 H   0  0  0  0  0  0  0  0  0  0  0  0
   -2.1106    8.6890    2.0408 H   0  0  0  0  0  0  0  0  0  0  0  0
  1  2  1  0  0  0  0
  1  6  2  0  0  0  0
  1 31  1  0  0  0  0
  2  3  2  0  0  0  0
  2 32  1  0  0  0  0
  3  4  1  0  0  0  0
  3 33  1  0  0  0  0
  4  5  1  0  0  0  0
  4 10  2  0  0  0  0
  5  6  1  0  0  0  0
  5  7  2  0  0  0  0
  6 34  1  0  0  0  0
  7  8  1  0  0  0  0
  7 35  1  0  0  0  0
  8  9  2  0  0  0  0
  9 10  1  0  0  0  0
  9 36  1  0  0  0  0
 10 11  1  0  0  0  0
 11 12  1  0  0  0  0
 11 37  1  0  0  0  0
 12 13  2  0  0  0  0
 12 14  1  0  0  0  0
 14 15  1  0  0  0  0
 14 19  1  0  0  0  0
 14 38  1  0  0  0  0
 15 16  1  0  0  0  0
 15 39  1  0  0  0  0
 15 40  1  0  0  0  0
 16 17  1  0  0  0  0
 16 41  1  0  0  0  0
 16 42  1  0  0  0  0
 17 18  1  0  0  0  0
 17 25  1  0  0  0  0
 18 19  1  0  0  0  0
 18 23  2  0  0  0  0
 19 20  2  0  0  0  0
 20 21  1  0  0  0  0
 20 43  1  0  0  0  0
 21 22  2  0  0  0  0
 21 24  1  0  0  0  0
 22 23  1  0  0  0  0
 22 44  1  0  0  0  0
 23 45  1  0  0  0  0
 25 26  1  0  0  0  0
 25 46  1  0  0  0  0
 25 47  1  0  0  0  0
 26 27  2  0  0  0  0
 26 30  1  0  0  0  0
 27 28  1  0  0  0  0
 27 48  1  0  0  0  0
 28 29  2  0  0  0  0
 28 49  1  0  0  0  0
 29 30  1  0  0  0  0
 30 50  1  0  0  0  0
M  END
$$$$
