
 OpenBabel07202414173D

 37 40  0  0  1  0  0  0  0  0999 V2000
    1.0669    0.1813   -0.0455 Cl  0  0  0  0  0  0  0  0  0  0  0  0
    2.7850    0.1239   -0.0377 C   0  0  0  0  0  0  0  0  0  0  0  0
    3.5183    1.3070   -0.0796 C   0  0  0  0  0  0  0  0  0  0  0  0
    4.9132    1.2587   -0.0496 C   0  0  0  0  0  0  0  0  0  0  0  0
    5.5721    0.0326    0.0415 C   0  0  0  0  0  0  0  0  0  0  0  0
    4.8392   -1.1587    0.0797 C   0  0  0  0  0  0  0  0  0  0  0  0
    3.4357   -1.1065    0.0353 C   0  0  0  0  0  0  0  0  0  0  0  0
    5.5418   -2.4846    0.2558 C   0  0  3  0  0  0  0  0  0  0  0  0
    5.4464   -3.0474    1.6864 C   0  0  0  0  0  0  0  0  0  0  0  0
    5.5460   -4.2586    1.8613 O   0  0  0  0  0  0  0  0  0  0  0  0
    5.3243   -2.0899    2.6778 N   0  0  0  0  0  0  0  0  0  0  0  0
    5.2190   -2.4146    4.0115 C   0  0  0  0  0  0  0  0  0  0  0  0
    5.2518   -3.6063    4.5718 N   0  0  0  0  0  0  0  0  0  0  0  0
    5.0904   -3.4619    5.9328 N   0  0  0  0  0  0  0  0  0  0  0  0
    4.9592   -2.1806    6.1804 C   0  0  0  0  0  0  0  0  0  0  0  0
    5.0339   -1.4848    5.0144 N   0  0  0  0  0  0  0  0  0  0  0  0
    4.9223   -0.0460    4.8683 C   0  0  0  0  0  0  0  0  0  0  0  0
    5.3368    0.9183    5.9690 C   0  0  0  0  0  0  0  0  0  0  0  0
    3.8913    0.7487    5.6542 C   0  0  0  0  0  0  0  0  0  0  0  0
    7.0042   -2.3545   -0.1641 C   0  0  0  0  0  0  0  0  0  0  0  0
    7.6154   -1.1125    0.4627 C   0  0  0  0  0  0  0  0  0  0  0  0
    6.9357    0.0917    0.0950 O   0  0  0  0  0  0  0  0  0  0  0  0
    3.0127    2.2674   -0.1350 H   0  0  0  0  0  0  0  0  0  0  0  0
    5.4878    2.1815   -0.0860 H   0  0  0  0  0  0  0  0  0  0  0  0
    2.8519   -2.0247    0.0752 H   0  0  0  0  0  0  0  0  0  0  0  0
    5.0586   -3.2188   -0.4037 H   0  0  0  0  0  0  0  0  0  0  0  0
    5.2531   -1.1183    2.4189 H   0  0  0  0  0  0  0  0  0  0  0  0
    4.8204   -1.7335    7.1529 H   0  0  0  0  0  0  0  0  0  0  0  0
    5.0900    0.3065    3.8555 H   0  0  0  0  0  0  0  0  0  0  0  0
    5.8128    1.8491    5.6764 H   0  0  0  0  0  0  0  0  0  0  0  0
    5.7008    0.5345    6.9154 H   0  0  0  0  0  0  0  0  0  0  0  0
    3.3826    1.5595    5.1417 H   0  0  0  0  0  0  0  0  0  0  0  0
    3.2621    0.2357    6.3733 H   0  0  0  0  0  0  0  0  0  0  0  0
    7.0550   -2.2582   -1.2570 H   0  0  0  0  0  0  0  0  0  0  0  0
    7.5810   -3.2433    0.1163 H   0  0  0  0  0  0  0  0  0  0  0  0
    8.6539   -1.0102    0.1297 H   0  0  0  0  0  0  0  0  0  0  0  0
    7.6444   -1.1782    1.5563 H   0  0  0  0  0  0  0  0  0  0  0  0
  1  2  1  0  0  0  0
  2  3  1  0  0  0  0
  2  7  2  0  0  0  0
  3  4  2  0  0  0  0
  3 23  1  0  0  0  0
  4  5  1  0  0  0  0
  4 24  1  0  0  0  0
  5  6  2  0  0  0  0
  5 22  1  0  0  0  0
  6  7  1  0  0  0  0
  6  8  1  0  0  0  0
  7 25  1  0  0  0  0
  8  9  1  0  0  0  0
  8 20  1  0  0  0  0
  8 26  1  0  0  0  0
  9 10  2  0  0  0  0
  9 11  1  0  0  0  0
 11 12  1  0  0  0  0
 11 27  1  0  0  0  0
 12 13  2  0  0  0  0
 12 16  1  0  0  0  0
 13 14  1  0  0  0  0
 14 15  2  0  0  0  0
 15 16  1  0  0  0  0
 15 28  1  0  0  0  0
 16 17  1  0  0  0  0
 17 18  1  0  0  0  0
 17 19  1  0  0  0  0
 17 29  1  0  0  0  0
 18 19  1  0  0  0  0
 18 30  1  0  0  0  0
 18 31  1  0  0  0  0
 19 32  1  0  0  0  0
 19 33  1  0  0  0  0
 20 21  1  0  0  0  0
 20 34  1  0  0  0  0
 20 35  1  0  0  0  0
 21 22  1  0  0  0  0
 21 36  1  0  0  0  0
 21 37  1  0  0  0  0
M  END
$$$$
