
 OpenBabel07202414183D

 36 38  0  0  0  0  0  0  0  0999 V2000
   -1.1065   -4.2744   -3.2069 Cl  0  0  0  0  0  0  0  0  0  0  0  0
    0.3284   -3.3464   -2.9945 C   0  0  0  0  0  0  0  0  0  0  0  0
    0.9074   -2.7148   -4.0891 C   0  0  0  0  0  0  0  0  0  0  0  0
    2.0610   -1.9560   -3.9093 C   0  0  0  0  0  0  0  0  0  0  0  0
    2.6482   -1.8459   -2.6363 C   0  0  0  0  0  0  0  0  0  0  0  0
    2.0990   -2.5150   -1.5323 C   0  0  0  0  0  0  0  0  0  0  0  0
    2.6767   -2.4223   -0.1308 C   0  0  0  0  0  0  0  0  0  0  0  0
    4.1693   -2.1965   -0.0072 C   0  0  0  0  0  0  0  0  0  0  0  0
    4.6191   -1.0431    0.0705 O   0  0  0  0  0  0  0  0  0  0  0  0
    4.9721   -3.3334    0.0243 N   0  0  0  0  0  0  0  0  0  0  0  0
    6.3861   -3.1562    0.0990 C   0  0  0  0  0  0  0  0  0  0  0  0
    6.9722   -2.4801    1.1672 C   0  0  0  0  0  0  0  0  0  0  0  0
    8.2968   -2.2027    1.2641 N   0  0  0  0  0  0  0  0  0  0  0  0
    9.0698   -2.5953    0.2325 C   0  0  0  0  0  0  0  0  0  0  0  0
    8.5947   -3.2951   -0.8720 C   0  0  0  0  0  0  0  0  0  0  0  0
    7.2218   -3.5811   -0.9292 C   0  0  0  0  0  0  0  0  0  0  0  0
    6.6462   -4.2269   -2.0015 O   0  0  0  0  0  0  0  0  0  0  0  0
    7.4530   -4.2236   -3.1873 C   0  0  0  0  0  0  0  0  0  0  0  0
    8.8745   -4.6783   -2.8994 C   0  0  0  0  0  0  0  0  0  0  0  0
    9.5287   -3.6556   -1.9864 C   0  0  0  0  0  0  0  0  0  0  0  0
    0.9088   -3.2431   -1.7255 C   0  0  0  0  0  0  0  0  0  0  0  0
    0.4616   -2.8022   -5.0774 H   0  0  0  0  0  0  0  0  0  0  0  0
    2.5111   -1.4481   -4.7583 H   0  0  0  0  0  0  0  0  0  0  0  0
    3.5298   -1.2183   -2.5305 H   0  0  0  0  0  0  0  0  0  0  0  0
    2.4214   -3.3225    0.4392 H   0  0  0  0  0  0  0  0  0  0  0  0
    2.1876   -1.5810    0.3857 H   0  0  0  0  0  0  0  0  0  0  0  0
    4.6612   -4.0978   -0.5674 H   0  0  0  0  0  0  0  0  0  0  0  0
    6.3807   -2.1316    2.0093 H   0  0  0  0  0  0  0  0  0  0  0  0
   10.1168   -2.3107    0.3124 H   0  0  0  0  0  0  0  0  0  0  0  0
    7.4316   -3.2228   -3.6383 H   0  0  0  0  0  0  0  0  0  0  0  0
    6.9841   -4.9099   -3.8995 H   0  0  0  0  0  0  0  0  0  0  0  0
    9.4534   -4.7878   -3.8221 H   0  0  0  0  0  0  0  0  0  0  0  0
    8.8518   -5.6521   -2.3945 H   0  0  0  0  0  0  0  0  0  0  0  0
    9.7657   -2.7474   -2.5541 H   0  0  0  0  0  0  0  0  0  0  0  0
   10.4664   -4.0593   -1.5890 H   0  0  0  0  0  0  0  0  0  0  0  0
    0.4272   -3.7361   -0.8842 H   0  0  0  0  0  0  0  0  0  0  0  0
  1  2  1  0  0  0  0
  2  3  1  0  0  0  0
  2 21  2  0  0  0  0
  3  4  2  0  0  0  0
  3 22  1  0  0  0  0
  4  5  1  0  0  0  0
  4 23  1  0  0  0  0
  5  6  2  0  0  0  0
  5 24  1  0  0  0  0
  6  7  1  0  0  0  0
  6 21  1  0  0  0  0
  7  8  1  0  0  0  0
  7 25  1  0  0  0  0
  7 26  1  0  0  0  0
  8  9  2  0  0  0  0
  8 10  1  0  0  0  0
 10 11  1  0  0  0  0
 10 27  1  0  0  0  0
 11 12  1  0  0  0  0
 11 16  2  0  0  0  0
 12 13  2  0  0  0  0
 12 28  1  0  0  0  0
 13 14  1  0  0  0  0
 14 15  2  0  0  0  0
 14 29  1  0  0  0  0
 15 16  1  0  0  0  0
 15 20  1  0  0  0  0
 16 17  1  0  0  0  0
 17 18  1  0  0  0  0
 18 19  1  0  0  0  0
 18 30  1  0  0  0  0
 18 31  1  0  0  0  0
 19 20  1  0  0  0  0
 19 32  1  0  0  0  0
 19 33  1  0  0  0  0
 20 34  1  0  0  0  0
 20 35  1  0  0  0  0
 21 36  1  0  0  0  0
M  END
$$$$
