
 OpenBabel07202414193D

 60 64  0  0  1  0  0  0  0  0999 V2000
    5.0454    1.2156   -1.5261 O   0  0  0  0  0  0  0  0  0  0  0  0
    4.5547    1.7131   -0.5159 C   0  0  0  0  0  0  0  0  0  0  0  0
    3.0882    1.5042   -0.1189 C   0  0  0  0  0  0  0  0  0  0  0  0
    2.2201    2.6774   -0.4152 N   0  0  0  0  0  0  0  0  0  0  0  0
    0.8249    2.2853   -0.1259 C   0  0  0  0  0  0  0  0  0  0  0  0
   -0.1721    3.4240   -0.1999 C   0  0  0  0  0  0  0  0  0  0  0  0
   -1.5361    3.1090   -0.3321 C   0  0  0  0  0  0  0  0  0  0  0  0
   -2.4917    4.1175   -0.4298 C   0  0  0  0  0  0  0  0  0  0  0  0
   -2.0886    5.4471   -0.3832 C   0  0  0  0  0  0  0  0  0  0  0  0
   -3.2589    6.6957   -0.5699 Cl  0  0  0  0  0  0  0  0  0  0  0  0
   -0.7425    5.7791   -0.2084 C   0  0  0  0  0  0  0  0  0  0  0  0
    0.2309    4.7720   -0.0933 C   0  0  0  0  0  0  0  0  0  0  0  0
    1.7118    5.0991    0.0071 C   0  0  1  0  0  0  0  0  0  0  0  0
    2.0641    6.2048    1.0154 C   0  0  0  0  0  0  0  0  0  0  0  0
    2.2098    5.9687    2.2138 O   0  0  0  0  0  0  0  0  0  0  0  0
    2.2061    7.4546    0.4274 N   0  0  0  0  0  0  0  0  0  0  0  0
    2.5012    8.6918    1.0701 C   0  0  0  0  0  0  0  0  0  0  0  0
    2.7364    8.7986    2.4428 C   0  0  0  0  0  0  0  0  0  0  0  0
    2.8724    9.9674    3.1127 N   0  0  0  0  0  0  0  0  0  0  0  0
    2.8106   11.0942    2.3772 C   0  0  0  0  0  0  0  0  0  0  0  0
    2.6964   11.1243    0.9895 C   0  0  0  0  0  0  0  0  0  0  0  0
    2.7514   12.3440    0.2906 C   0  0  0  0  0  0  0  0  0  0  0  0
    2.6783   12.3727   -1.0988 C   0  0  0  0  0  0  0  0  0  0  0  0
    2.5232   11.1857   -1.8002 C   0  0  0  0  0  0  0  0  0  0  0  0
    2.4473    9.9686   -1.1135 C   0  0  0  0  0  0  0  0  0  0  0  0
    2.5392    9.8963    0.3025 C   0  0  0  0  0  0  0  0  0  0  0  0
    2.5536    3.8630    0.3909 C   0  0  0  0  0  0  0  0  0  0  0  0
    5.2771    2.4778    0.3742 N   0  0  0  0  0  0  0  0  0  0  0  0
    6.6636    2.8137    0.1707 C   0  0  0  0  0  0  0  0  0  0  0  0
    7.5307    2.0053    1.0921 C   0  0  0  0  0  0  0  0  0  0  0  0
    8.0679    0.7848    0.6641 C   0  0  0  0  0  0  0  0  0  0  0  0
    8.8348    0.0044    1.5291 C   0  0  0  0  0  0  0  0  0  0  0  0
    9.0582    0.4289    2.8391 C   0  0  0  0  0  0  0  0  0  0  0  0
    8.5095    1.6327    3.2757 C   0  0  0  0  0  0  0  0  0  0  0  0
    8.7887    2.1958    5.0616 Br  0  0  0  0  0  0  0  0  0  0  0  0
    7.7472    2.4220    2.4135 C   0  0  0  0  0  0  0  0  0  0  0  0
    3.0406    1.2184    0.9394 H   0  0  0  0  0  0  0  0  0  0  0  0
    2.7387    0.6411   -0.7018 H   0  0  0  0  0  0  0  0  0  0  0  0
    0.7433    1.8419    0.8761 H   0  0  0  0  0  0  0  0  0  0  0  0
    0.5271    1.5239   -0.8584 H   0  0  0  0  0  0  0  0  0  0  0  0
   -1.8572    2.0696   -0.3760 H   0  0  0  0  0  0  0  0  0  0  0  0
   -3.5398    3.8592   -0.5545 H   0  0  0  0  0  0  0  0  0  0  0  0
   -0.4674    6.8293   -0.1775 H   0  0  0  0  0  0  0  0  0  0  0  0
    2.0323    5.4168   -0.9953 H   0  0  0  0  0  0  0  0  0  0  0  0
    1.9864    7.5091   -0.5567 H   0  0  0  0  0  0  0  0  0  0  0  0
    2.8287    7.9329    3.0894 H   0  0  0  0  0  0  0  0  0  0  0  0
    2.8705   12.0114    2.9589 H   0  0  0  0  0  0  0  0  0  0  0  0
    2.8784   13.2818    0.8282 H   0  0  0  0  0  0  0  0  0  0  0  0
    2.7542   13.3176   -1.6314 H   0  0  0  0  0  0  0  0  0  0  0  0
    2.4733   11.1993   -2.8865 H   0  0  0  0  0  0  0  0  0  0  0  0
    2.3483    9.0749   -1.7221 H   0  0  0  0  0  0  0  0  0  0  0  0
    2.4621    3.6244    1.4594 H   0  0  0  0  0  0  0  0  0  0  0  0
    3.5893    4.1667    0.2151 H   0  0  0  0  0  0  0  0  0  0  0  0
    4.8588    2.7276    1.2592 H   0  0  0  0  0  0  0  0  0  0  0  0
    6.7770    3.8824    0.3863 H   0  0  0  0  0  0  0  0  0  0  0  0
    6.9545    2.6638   -0.8747 H   0  0  0  0  0  0  0  0  0  0  0  0
    7.8808    0.4350   -0.3518 H   0  0  0  0  0  0  0  0  0  0  0  0
    9.2506   -0.9381    1.1823 H   0  0  0  0  0  0  0  0  0  0  0  0
    9.6510   -0.1884    3.5084 H   0  0  0  0  0  0  0  0  0  0  0  0
    7.3203    3.3550    2.7714 H   0  0  0  0  0  0  0  0  0  0  0  0
  1  2  2  0  0  0  0
  2  3  1  0  0  0  0
  2 28  1  0  0  0  0
  3  4  1  0  0  0  0
  3 37  1  0  0  0  0
  3 38  1  0  0  0  0
  4  5  1  0  0  0  0
  4 27  1  0  0  0  0
  5  6  1  0  0  0  0
  5 39  1  0  0  0  0
  5 40  1  0  0  0  0
  6  7  1  0  0  0  0
  6 12  2  0  0  0  0
  7  8  2  0  0  0  0
  7 41  1  0  0  0  0
  8  9  1  0  0  0  0
  8 42  1  0  0  0  0
  9 10  1  0  0  0  0
  9 11  2  0  0  0  0
 11 12  1  0  0  0  0
 11 43  1  0  0  0  0
 12 13  1  0  0  0  0
 13 27  1  0  0  0  0
 13 14  1  0  0  0  0
 13 44  1  6  0  0  0
 14 15  2  0  0  0  0
 14 16  1  0  0  0  0
 16 17  1  0  0  0  0
 16 45  1  0  0  0  0
 17 18  1  0  0  0  0
 17 26  2  0  0  0  0
 18 19  2  0  0  0  0
 18 46  1  0  0  0  0
 19 20  1  0  0  0  0
 20 21  2  0  0  0  0
 20 47  1  0  0  0  0
 21 22  1  0  0  0  0
 21 26  1  0  0  0  0
 22 23  2  0  0  0  0
 22 48  1  0  0  0  0
 23 24  1  0  0  0  0
 23 49  1  0  0  0  0
 24 25  2  0  0  0  0
 24 50  1  0  0  0  0
 25 26  1  0  0  0  0
 25 51  1  0  0  0  0
 27 52  1  0  0  0  0
 27 53  1  0  0  0  0
 28 29  1  0  0  0  0
 28 54  1  0  0  0  0
 29 30  1  0  0  0  0
 29 55  1  0  0  0  0
 29 56  1  0  0  0  0
 30 31  1  0  0  0  0
 30 36  2  0  0  0  0
 31 32  2  0  0  0  0
 31 57  1  0  0  0  0
 32 33  1  0  0  0  0
 32 58  1  0  0  0  0
 33 34  2  0  0  0  0
 33 59  1  0  0  0  0
 34 35  1  0  0  0  0
 34 36  1  0  0  0  0
 36 60  1  0  0  0  0
M  END
$$$$
