
 OpenBabel07202414123D

 37 39  0  0  1  0  0  0  0  0999 V2000
    2.8476    1.3300    1.0553 C   0  0  0  0  0  0  0  0  0  0  0  0
    2.6571    0.1041    0.1546 C   0  0  3  0  0  0  0  0  0  0  0  0
    3.3849    0.1523   -1.1871 C   0  0  0  0  0  0  0  0  0  0  0  0
    4.1507    1.2506   -1.6024 C   0  0  0  0  0  0  0  0  0  0  0  0
    4.7910    1.2440   -2.8455 C   0  0  0  0  0  0  0  0  0  0  0  0
    4.6799    0.1438   -3.6980 C   0  0  0  0  0  0  0  0  0  0  0  0
    3.9142   -0.9566   -3.3062 C   0  0  0  0  0  0  0  0  0  0  0  0
    3.2708   -0.9463   -2.0621 C   0  0  0  0  0  0  0  0  0  0  0  0
    3.7261   -2.3559   -4.2992 Cl  0  0  0  0  0  0  0  0  0  0  0  0
    5.5018    0.2135   -5.2145 Cl  0  0  0  0  0  0  0  0  0  0  0  0
    2.9997   -1.1598    0.9538 C   0  0  0  0  0  0  0  0  0  0  0  0
    2.1144   -1.8809    1.4077 O   0  0  0  0  0  0  0  0  0  0  0  0
    4.3513   -1.3458    1.1725 N   0  0  0  0  0  0  0  0  0  0  0  0
    4.9015   -2.4408    1.8777 C   0  0  0  0  0  0  0  0  0  0  0  0
    4.3705   -3.7271    1.7655 C   0  0  0  0  0  0  0  0  0  0  0  0
    4.9027   -4.8227    2.3534 N   0  0  0  0  0  0  0  0  0  0  0  0
    6.0025   -4.6231    3.1116 C   0  0  0  0  0  0  0  0  0  0  0  0
    6.6034   -3.3818    3.3294 C   0  0  0  0  0  0  0  0  0  0  0  0
    6.0460   -2.2522    2.6886 C   0  0  0  0  0  0  0  0  0  0  0  0
    6.6246   -0.9890    2.9642 C   0  0  0  0  0  0  0  0  0  0  0  0
    7.7210   -0.8590    3.8163 C   0  0  0  0  0  0  0  0  0  0  0  0
    8.2716   -1.9835    4.4178 C   0  0  0  0  0  0  0  0  0  0  0  0
    7.7184   -3.2387    4.1753 C   0  0  0  0  0  0  0  0  0  0  0  0
    2.4489    2.2318    0.5768 H   0  0  0  0  0  0  0  0  0  0  0  0
    3.9029    1.5103    1.2902 H   0  0  0  0  0  0  0  0  0  0  0  0
    2.3219    1.2016    2.0078 H   0  0  0  0  0  0  0  0  0  0  0  0
    1.5857    0.0421   -0.0819 H   0  0  0  0  0  0  0  0  0  0  0  0
    4.2581    2.1418   -0.9843 H   0  0  0  0  0  0  0  0  0  0  0  0
    5.3762    2.1097   -3.1483 H   0  0  0  0  0  0  0  0  0  0  0  0
    2.6741   -1.8117   -1.7717 H   0  0  0  0  0  0  0  0  0  0  0  0
    4.9689   -0.5726    0.9663 H   0  0  0  0  0  0  0  0  0  0  0  0
    3.5046   -3.9341    1.1433 H   0  0  0  0  0  0  0  0  0  0  0  0
    6.3875   -5.5270    3.5791 H   0  0  0  0  0  0  0  0  0  0  0  0
    6.2089   -0.0781    2.5427 H   0  0  0  0  0  0  0  0  0  0  0  0
    8.1282    0.1269    4.0241 H   0  0  0  0  0  0  0  0  0  0  0  0
    9.1195   -1.8813    5.0911 H   0  0  0  0  0  0  0  0  0  0  0  0
    8.1471   -4.1071    4.6713 H   0  0  0  0  0  0  0  0  0  0  0  0
  1  2  1  0  0  0  0
  1 24  1  0  0  0  0
  1 25  1  0  0  0  0
  1 26  1  0  0  0  0
  2  3  1  0  0  0  0
  2 11  1  0  0  0  0
  2 27  1  0  0  0  0
  3  4  1  0  0  0  0
  3  8  2  0  0  0  0
  4  5  2  0  0  0  0
  4 28  1  0  0  0  0
  5  6  1  0  0  0  0
  5 29  1  0  0  0  0
  6  7  2  0  0  0  0
  6 10  1  0  0  0  0
  7  8  1  0  0  0  0
  7  9  1  0  0  0  0
  8 30  1  0  0  0  0
 11 12  2  0  0  0  0
 11 13  1  0  0  0  0
 13 14  1  0  0  0  0
 13 31  1  0  0  0  0
 14 15  1  0  0  0  0
 14 19  2  0  0  0  0
 15 16  2  0  0  0  0
 15 32  1  0  0  0  0
 16 17  1  0  0  0  0
 17 18  2  0  0  0  0
 17 33  1  0  0  0  0
 18 19  1  0  0  0  0
 18 23  1  0  0  0  0
 19 20  1  0  0  0  0
 20 21  2  0  0  0  0
 20 34  1  0  0  0  0
 21 22  1  0  0  0  0
 21 35  1  0  0  0  0
 22 23  2  0  0  0  0
 22 36  1  0  0  0  0
 23 37  1  0  0  0  0
M  END
$$$$
