
 OpenBabel07202414123D

 62 65  0  0  1  0  0  0  0  0999 V2000
    2.6759   -1.5955    2.1698 C   0  0  0  0  0  0  0  0  0  0  0  0
    4.0578   -1.8200    1.5301 C   0  0  0  0  0  0  0  0  0  0  0  0
    4.9102   -0.5648    1.8301 C   0  0  0  0  0  0  0  0  0  0  0  0
    4.7046   -3.0395    2.2183 C   0  0  0  0  0  0  0  0  0  0  0  0
    3.9941   -2.1048    0.0209 C   0  0  0  0  0  0  0  0  0  0  0  0
    2.7920   -2.4031   -0.6389 C   0  0  0  0  0  0  0  0  0  0  0  0
    2.7842   -2.9121   -1.9432 C   0  0  0  0  0  0  0  0  0  0  0  0
    3.9755   -3.0899   -2.6363 C   0  0  0  0  0  0  0  0  0  0  0  0
    3.9907   -3.8153   -3.8741 N   0  0  0  0  0  0  0  0  0  0  0  0
    3.7161   -5.2859   -3.7304 C   0  0  3  0  0  0  0  0  0  0  0  0
    4.5867   -6.1677   -2.6819 C   0  0  0  0  0  0  0  0  0  0  0  0
    4.0743   -7.1737   -2.1654 O   0  0  0  0  0  0  0  0  0  0  0  0
    5.9511   -5.9951   -2.4449 N   0  0  0  0  0  0  0  0  0  0  0  0
    6.6385   -7.0451   -1.6615 C   0  0  0  0  0  0  0  0  0  0  0  0
    7.8394   -6.5092   -0.8747 C   0  0  0  0  0  0  0  0  0  0  0  0
    8.7326   -5.7649   -1.7137 O   0  0  0  0  0  0  0  0  0  0  0  0
    8.0483   -4.6956   -2.3797 C   0  0  0  0  0  0  0  0  0  0  0  0
    6.8915   -5.2216   -3.2456 C   0  0  0  0  0  0  0  0  0  0  0  0
    2.1978   -5.6230   -3.6812 C   0  0  0  0  0  0  0  0  0  0  0  0
    1.3620   -5.3877   -4.7803 C   0  0  0  0  0  0  0  0  0  0  0  0
    0.0791   -5.9323   -4.8474 C   0  0  0  0  0  0  0  0  0  0  0  0
   -0.3812   -6.6578   -3.7701 C   0  0  0  0  0  0  0  0  0  0  0  0
    0.3145   -6.7866   -2.6283 N   0  0  0  0  0  0  0  0  0  0  0  0
    1.5691   -6.2609   -2.6038 C   0  0  0  0  0  0  0  0  0  0  0  0
    4.5854   -3.1951   -5.0030 C   0  0  0  0  0  0  0  0  0  0  0  0
    5.1838   -2.1225   -4.8827 O   0  0  0  0  0  0  0  0  0  0  0  0
    4.4829   -3.7566   -6.3605 C   0  0  0  0  0  0  0  0  0  0  0  0
    5.0875   -3.2971   -7.5227 C   0  0  0  0  0  0  0  0  0  0  0  0
    4.5260   -4.0159   -8.6059 C   0  0  0  0  0  0  0  0  0  0  0  0
    3.6342   -4.8942   -8.0421 C   0  0  0  0  0  0  0  0  0  0  0  0
    3.6303   -4.7682   -6.6882 O   0  0  0  0  0  0  0  0  0  0  0  0
    5.1498   -2.5983   -2.0649 C   0  0  0  0  0  0  0  0  0  0  0  0
    5.1700   -2.1631   -0.7398 C   0  0  0  0  0  0  0  0  0  0  0  0
    2.7628   -1.3823    3.2391 H   0  0  0  0  0  0  0  0  0  0  0  0
    2.0402   -2.4852    2.0742 H   0  0  0  0  0  0  0  0  0  0  0  0
    2.1508   -0.7525    1.7038 H   0  0  0  0  0  0  0  0  0  0  0  0
    4.9306   -0.3549    2.9077 H   0  0  0  0  0  0  0  0  0  0  0  0
    4.5069    0.3210    1.3255 H   0  0  0  0  0  0  0  0  0  0  0  0
    5.9561   -0.6770    1.5170 H   0  0  0  0  0  0  0  0  0  0  0  0
    4.7800   -2.8877    3.3015 H   0  0  0  0  0  0  0  0  0  0  0  0
    5.7161   -3.2397    1.8461 H   0  0  0  0  0  0  0  0  0  0  0  0
    4.1111   -3.9462    2.0507 H   0  0  0  0  0  0  0  0  0  0  0  0
    1.8313   -2.2886   -0.1476 H   0  0  0  0  0  0  0  0  0  0  0  0
    1.8289   -3.1458   -2.4081 H   0  0  0  0  0  0  0  0  0  0  0  0
    4.0607   -5.7519   -4.6599 H   0  0  0  0  0  0  0  0  0  0  0  0
    6.9941   -7.7803   -2.3969 H   0  0  0  0  0  0  0  0  0  0  0  0
    5.9621   -7.5649   -0.9771 H   0  0  0  0  0  0  0  0  0  0  0  0
    8.4091   -7.3490   -0.4612 H   0  0  0  0  0  0  0  0  0  0  0  0
    7.5165   -5.8843   -0.0336 H   0  0  0  0  0  0  0  0  0  0  0  0
    8.7789   -4.1846   -3.0143 H   0  0  0  0  0  0  0  0  0  0  0  0
    7.7033   -3.9799   -1.6258 H   0  0  0  0  0  0  0  0  0  0  0  0
    7.2869   -5.9120   -4.0022 H   0  0  0  0  0  0  0  0  0  0  0  0
    6.4086   -4.4190   -3.7797 H   0  0  0  0  0  0  0  0  0  0  0  0
    1.6959   -4.8009   -5.6246 H   0  0  0  0  0  0  0  0  0  0  0  0
   -0.5312   -5.8127   -5.7356 H   0  0  0  0  0  0  0  0  0  0  0  0
   -1.3433   -7.1605   -3.7949 H   0  0  0  0  0  0  0  0  0  0  0  0
    2.0557   -6.4112   -1.6441 H   0  0  0  0  0  0  0  0  0  0  0  0
    5.8035   -2.4892   -7.5735 H   0  0  0  0  0  0  0  0  0  0  0  0
    4.7180   -3.8829   -9.6629 H   0  0  0  0  0  0  0  0  0  0  0  0
    2.9409   -5.6190   -8.4476 H   0  0  0  0  0  0  0  0  0  0  0  0
    6.0869   -2.6004   -2.6112 H   0  0  0  0  0  0  0  0  0  0  0  0
    6.1341   -1.9111   -0.3054 H   0  0  0  0  0  0  0  0  0  0  0  0
  1  2  1  0  0  0  0
  1 34  1  0  0  0  0
  1 35  1  0  0  0  0
  1 36  1  0  0  0  0
  2  3  1  0  0  0  0
  2  4  1  0  0  0  0
  2  5  1  0  0  0  0
  3 37  1  0  0  0  0
  3 38  1  0  0  0  0
  3 39  1  0  0  0  0
  4 40  1  0  0  0  0
  4 41  1  0  0  0  0
  4 42  1  0  0  0  0
  5  6  1  0  0  0  0
  5 33  2  0  0  0  0
  6  7  2  0  0  0  0
  6 43  1  0  0  0  0
  7  8  1  0  0  0  0
  7 44  1  0  0  0  0
  8  9  1  0  0  0  0
  8 32  2  0  0  0  0
  9 10  1  0  0  0  0
  9 25  1  0  0  0  0
 10 11  1  0  0  0  0
 10 19  1  0  0  0  0
 10 45  1  0  0  0  0
 11 12  2  0  0  0  0
 11 13  1  0  0  0  0
 13 14  1  0  0  0  0
 13 18  1  0  0  0  0
 14 15  1  0  0  0  0
 14 46  1  0  0  0  0
 14 47  1  0  0  0  0
 15 16  1  0  0  0  0
 15 48  1  0  0  0  0
 15 49  1  0  0  0  0
 16 17  1  0  0  0  0
 17 18  1  0  0  0  0
 17 50  1  0  0  0  0
 17 51  1  0  0  0  0
 18 52  1  0  0  0  0
 18 53  1  0  0  0  0
 19 20  1  0  0  0  0
 19 24  2  0  0  0  0
 20 21  2  0  0  0  0
 20 54  1  0  0  0  0
 21 22  1  0  0  0  0
 21 55  1  0  0  0  0
 22 23  2  0  0  0  0
 22 56  1  0  0  0  0
 23 24  1  0  0  0  0
 24 57  1  0  0  0  0
 25 26  2  0  0  0  0
 25 27  1  0  0  0  0
 27 28  2  0  0  0  0
 27 31  1  0  0  0  0
 28 29  1  0  0  0  0
 28 58  1  0  0  0  0
 29 30  2  0  0  0  0
 29 59  1  0  0  0  0
 30 31  1  0  0  0  0
 30 60  1  0  0  0  0
 32 33  1  0  0  0  0
 32 61  1  0  0  0  0
 33 62  1  0  0  0  0
M  END
$$$$
