
 OpenBabel07202414203D

 48 51  0  0  0  0  0  0  0  0999 V2000
    1.7332    2.4692   -1.0178 O   0  5  0  0  0  0  0  0  0  0  0  0
    2.4751    1.5857   -0.5701 N   0  3  0  0  0  0  0  0  0  0  0  0
    3.2905    1.7321    0.3538 O   0  0  0  0  0  0  0  0  0  0  0  0
    2.3713    0.2591   -1.1624 C   0  0  0  0  0  0  0  0  0  0  0  0
    1.0799   -0.2703   -1.3116 C   0  0  0  0  0  0  0  0  0  0  0  0
    0.9251   -1.5428   -1.8512 C   0  0  0  0  0  0  0  0  0  0  0  0
    2.0527   -2.2746   -2.2106 C   0  0  0  0  0  0  0  0  0  0  0  0
    3.3400   -1.7375   -2.0525 C   0  0  0  0  0  0  0  0  0  0  0  0
    4.6585   -2.8077   -2.4065 Cl  0  0  0  0  0  0  0  0  0  0  0  0
    3.5385   -0.4357   -1.5396 C   0  0  0  0  0  0  0  0  0  0  0  0
    4.8141    0.1766   -1.4793 N   0  0  0  0  0  0  0  0  0  0  0  0
    5.8111    0.3006   -2.4695 C   0  0  0  0  0  0  0  0  0  0  0  0
    7.1226    0.5955   -2.0781 C   0  0  0  0  0  0  0  0  0  0  0  0
    8.1550    0.6291   -3.0179 C   0  0  0  0  0  0  0  0  0  0  0  0
    9.7594    0.9865   -2.5074 Cl  0  0  0  0  0  0  0  0  0  0  0  0
    7.9055    0.3552   -4.3616 C   0  0  0  0  0  0  0  0  0  0  0  0
    6.6082    0.0376   -4.7760 C   0  0  0  0  0  0  0  0  0  0  0  0
    6.3187   -0.3118   -6.2193 C   0  0  0  0  0  0  0  0  0  0  0  0
    5.9078    0.8208   -7.1464 C   0  0  0  0  0  0  0  0  0  0  0  0
    5.9268    0.6501   -8.3655 O   0  0  0  0  0  0  0  0  0  0  0  0
    5.5160    1.9952   -6.5384 N   0  0  0  0  0  0  0  0  0  0  0  0
    5.0853    3.1356   -7.2551 C   0  0  0  0  0  0  0  0  0  0  0  0
    4.2343    3.0230   -8.3568 C   0  0  0  0  0  0  0  0  0  0  0  0
    3.7458    4.0733   -9.0543 N   0  0  0  0  0  0  0  0  0  0  0  0
    4.1586    5.2964   -8.6574 C   0  0  0  0  0  0  0  0  0  0  0  0
    5.0275    5.5354   -7.5887 C   0  0  0  0  0  0  0  0  0  0  0  0
    5.4527    6.8366   -7.2658 C   0  0  0  0  0  0  0  0  0  0  0  0
    6.3547    7.0515   -6.2237 C   0  0  0  0  0  0  0  0  0  0  0  0
    6.8322    5.9738   -5.4914 C   0  0  0  0  0  0  0  0  0  0  0  0
    6.4096    4.6817   -5.7959 C   0  0  0  0  0  0  0  0  0  0  0  0
    5.4988    4.4277   -6.8515 C   0  0  0  0  0  0  0  0  0  0  0  0
    5.5709    0.0342   -3.8265 C   0  0  0  0  0  0  0  0  0  0  0  0
    0.1981    0.2982   -1.0117 H   0  0  0  0  0  0  0  0  0  0  0  0
   -0.0659   -1.9713   -1.9752 H   0  0  0  0  0  0  0  0  0  0  0  0
    1.9291   -3.2824   -2.6052 H   0  0  0  0  0  0  0  0  0  0  0  0
    4.9618    0.7725   -0.6628 H   0  0  0  0  0  0  0  0  0  0  0  0
    7.3507    0.7722   -1.0296 H   0  0  0  0  0  0  0  0  0  0  0  0
    8.7270    0.3630   -5.0760 H   0  0  0  0  0  0  0  0  0  0  0  0
    5.5192   -1.0619   -6.2559 H   0  0  0  0  0  0  0  0  0  0  0  0
    7.2095   -0.7856   -6.6514 H   0  0  0  0  0  0  0  0  0  0  0  0
    5.8254    2.1484   -5.5889 H   0  0  0  0  0  0  0  0  0  0  0  0
    3.8750    2.0568   -8.6992 H   0  0  0  0  0  0  0  0  0  0  0  0
    3.7643    6.1140   -9.2562 H   0  0  0  0  0  0  0  0  0  0  0  0
    5.0979    7.6918   -7.8387 H   0  0  0  0  0  0  0  0  0  0  0  0
    6.6922    8.0590   -5.9954 H   0  0  0  0  0  0  0  0  0  0  0  0
    7.5488    6.1359   -4.6896 H   0  0  0  0  0  0  0  0  0  0  0  0
    6.8392    3.8694   -5.2125 H   0  0  0  0  0  0  0  0  0  0  0  0
    4.5604   -0.1990   -4.1589 H   0  0  0  0  0  0  0  0  0  0  0  0
  1  2  1  0  0  0  0
  2  3  2  0  0  0  0
  2  4  1  0  0  0  0
  4  5  2  0  0  0  0
  4 10  1  0  0  0  0
  5  6  1  0  0  0  0
  5 33  1  0  0  0  0
  6  7  2  0  0  0  0
  6 34  1  0  0  0  0
  7  8  1  0  0  0  0
  7 35  1  0  0  0  0
  8  9  1  0  0  0  0
  8 10  2  0  0  0  0
 10 11  1  0  0  0  0
 11 12  1  0  0  0  0
 11 36  1  0  0  0  0
 12 13  2  0  0  0  0
 12 32  1  0  0  0  0
 13 14  1  0  0  0  0
 13 37  1  0  0  0  0
 14 15  1  0  0  0  0
 14 16  2  0  0  0  0
 16 17  1  0  0  0  0
 16 38  1  0  0  0  0
 17 18  1  0  0  0  0
 17 32  2  0  0  0  0
 18 19  1  0  0  0  0
 18 39  1  0  0  0  0
 18 40  1  0  0  0  0
 19 20  2  0  0  0  0
 19 21  1  0  0  0  0
 21 22  1  0  0  0  0
 21 41  1  0  0  0  0
 22 23  2  0  0  0  0
 22 31  1  0  0  0  0
 23 24  1  0  0  0  0
 23 42  1  0  0  0  0
 24 25  2  0  0  0  0
 25 26  1  0  0  0  0
 25 43  1  0  0  0  0
 26 27  2  0  0  0  0
 26 31  1  0  0  0  0
 27 28  1  0  0  0  0
 27 44  1  0  0  0  0
 28 29  2  0  0  0  0
 28 45  1  0  0  0  0
 29 30  1  0  0  0  0
 29 46  1  0  0  0  0
 30 31  2  0  0  0  0
 30 47  1  0  0  0  0
 32 48  1  0  0  0  0
M  CHG  2   1  -1   2   1
M  END
$$$$
