
 OpenBabel07202414163D

 42 45  0  0  1  0  0  0  0  0999 V2000
    0.9999   -0.0324   -0.0995 C   0  0  0  0  0  0  0  0  0  0  0  0
    2.4914    0.1281   -0.0531 C   0  0  0  0  0  0  0  0  0  0  0  0
    3.3113   -1.0107   -0.0359 C   0  0  0  0  0  0  0  0  0  0  0  0
    4.7029   -0.8955    0.0545 C   0  0  0  0  0  0  0  0  0  0  0  0
    5.3456    0.3011    0.1602 N   0  0  0  0  0  0  0  0  0  0  0  0
    4.5371    1.3865    0.1299 C   0  0  0  0  0  0  0  0  0  0  0  0
    3.1517    1.3746    0.0111 C   0  0  0  0  0  0  0  0  0  0  0  0
    2.7887    2.7441   -0.0011 C   0  0  0  0  0  0  0  0  0  0  0  0
    3.8233    3.5526    0.1727 N   0  0  0  0  0  0  0  0  0  0  0  0
    4.8977    2.7238    0.2988 N   0  0  0  0  0  0  0  0  0  0  0  0
    6.1611    3.2645    0.5938 C   0  0  0  0  0  0  0  0  0  0  0  0
    7.1707    2.5758    0.4490 O   0  0  0  0  0  0  0  0  0  0  0  0
    6.1497    4.6824    1.1665 C   0  0  3  0  0  0  0  0  0  0  0  0
    6.7693    4.5849    2.5642 C   0  0  0  0  0  0  0  0  0  0  0  0
    7.1910    5.9222    3.1411 C   0  0  0  0  0  0  0  0  0  0  0  0
    7.8909    6.7959    2.2649 O   0  0  0  0  0  0  0  0  0  0  0  0
    7.6758    6.6833    0.9254 C   0  0  0  0  0  0  0  0  0  0  0  0
    6.9020    5.6888    0.3210 C   0  0  0  0  0  0  0  0  0  0  0  0
    6.7721    5.7011   -1.0808 C   0  0  0  0  0  0  0  0  0  0  0  0
    7.4403    6.6573   -1.8494 C   0  0  0  0  0  0  0  0  0  0  0  0
    8.2145    7.6365   -1.2392 C   0  0  0  0  0  0  0  0  0  0  0  0
    8.3220    7.6519    0.1498 C   0  0  0  0  0  0  0  0  0  0  0  0
    7.3029    6.6249   -3.5645 Cl  0  0  0  0  0  0  0  0  0  0  0  0
    1.5471    3.2158   -0.1552 N   0  0  0  0  0  0  0  0  0  0  0  0
    5.5361   -2.1780    0.0521 C   0  0  0  0  0  0  0  0  0  0  0  0
    4.7713   -3.3136   -0.0268 F   0  0  0  0  0  0  0  0  0  0  0  0
    6.4006   -2.2602   -0.9985 F   0  0  0  0  0  0  0  0  0  0  0  0
    6.2853   -2.3350    1.1805 F   0  0  0  0  0  0  0  0  0  0  0  0
    0.7051   -1.0871   -0.1098 H   0  0  0  0  0  0  0  0  0  0  0  0
    0.5928    0.4408   -0.9975 H   0  0  0  0  0  0  0  0  0  0  0  0
    0.5521    0.4258    0.7886 H   0  0  0  0  0  0  0  0  0  0  0  0
    2.8555   -1.9994   -0.0865 H   0  0  0  0  0  0  0  0  0  0  0  0
    5.1392    5.0858    1.2902 H   0  0  0  0  0  0  0  0  0  0  0  0
    7.6509    3.9321    2.5417 H   0  0  0  0  0  0  0  0  0  0  0  0
    6.0570    4.1034    3.2481 H   0  0  0  0  0  0  0  0  0  0  0  0
    6.3358    6.4601    3.5632 H   0  0  0  0  0  0  0  0  0  0  0  0
    7.8739    5.7260    3.9779 H   0  0  0  0  0  0  0  0  0  0  0  0
    6.1521    4.9654   -1.5877 H   0  0  0  0  0  0  0  0  0  0  0  0
    8.7333    8.3855   -1.8306 H   0  0  0  0  0  0  0  0  0  0  0  0
    8.9168    8.4217    0.6361 H   0  0  0  0  0  0  0  0  0  0  0  0
    0.7214    2.6427   -0.0483 H   0  0  0  0  0  0  0  0  0  0  0  0
    1.3894    4.2112   -0.0486 H   0  0  0  0  0  0  0  0  0  0  0  0
  1  2  1  0  0  0  0
  1 29  1  0  0  0  0
  1 30  1  0  0  0  0
  1 31  1  0  0  0  0
  2  3  1  0  0  0  0
  2  7  2  0  0  0  0
  3  4  2  0  0  0  0
  3 32  1  0  0  0  0
  4  5  1  0  0  0  0
  4 25  1  0  0  0  0
  5  6  2  0  0  0  0
  6  7  1  0  0  0  0
  6 10  1  0  0  0  0
  7  8  1  0  0  0  0
  8  9  2  0  0  0  0
  8 24  1  0  0  0  0
  9 10  1  0  0  0  0
 10 11  1  0  0  0  0
 11 12  2  0  0  0  0
 11 13  1  0  0  0  0
 13 14  1  0  0  0  0
 13 18  1  0  0  0  0
 13 33  1  0  0  0  0
 14 15  1  0  0  0  0
 14 34  1  0  0  0  0
 14 35  1  0  0  0  0
 15 16  1  0  0  0  0
 15 36  1  0  0  0  0
 15 37  1  0  0  0  0
 16 17  1  0  0  0  0
 17 18  1  0  0  0  0
 17 22  2  0  0  0  0
 18 19  2  0  0  0  0
 19 20  1  0  0  0  0
 19 38  1  0  0  0  0
 20 21  2  0  0  0  0
 20 23  1  0  0  0  0
 21 22  1  0  0  0  0
 21 39  1  0  0  0  0
 22 40  1  0  0  0  0
 24 41  1  0  0  0  0
 24 42  1  0  0  0  0
 25 26  1  0  0  0  0
 25 27  1  0  0  0  0
 25 28  1  0  0  0  0
M  END
$$$$
