
 OpenBabel07202414193D

 44 47  0  0  0  0  0  0  0  0999 V2000
    1.2355   -0.7257   -0.6571 O   0  0  0  0  0  0  0  0  0  0  0  0
    2.2374   -0.2534   -0.1150 C   0  0  0  0  0  0  0  0  0  0  0  0
    2.6485    1.1823   -0.4305 C   0  0  0  0  0  0  0  0  0  0  0  0
    2.0895    2.2525    0.4851 C   0  0  0  0  0  0  0  0  0  0  0  0
    0.8114    2.1024    1.0291 C   0  0  0  0  0  0  0  0  0  0  0  0
    0.1926    3.0183    1.8040 N   0  0  0  0  0  0  0  0  0  0  0  0
    0.8628    4.1650    2.0365 C   0  0  0  0  0  0  0  0  0  0  0  0
    2.1316    4.4546    1.5397 C   0  0  0  0  0  0  0  0  0  0  0  0
    2.7561    5.6853    1.8178 C   0  0  0  0  0  0  0  0  0  0  0  0
    4.0188    5.9731    1.3085 C   0  0  0  0  0  0  0  0  0  0  0  0
    4.6638    5.0366    0.5126 C   0  0  0  0  0  0  0  0  0  0  0  0
    4.0498    3.8103    0.2289 C   0  0  0  0  0  0  0  0  0  0  0  0
    2.7702    3.4794    0.7372 C   0  0  0  0  0  0  0  0  0  0  0  0
    3.0187   -0.9953    0.7664 N   0  0  0  0  0  0  0  0  0  0  0  0
    2.7397   -2.4307    0.9327 C   0  0  0  0  0  0  0  0  0  0  0  0
    3.8140   -3.3392    0.3095 C   0  0  0  0  0  0  0  0  0  0  0  0
    5.0773   -3.4322    1.1446 C   0  0  0  0  0  0  0  0  0  0  0  0
    5.4484   -4.6675    1.7035 C   0  0  0  0  0  0  0  0  0  0  0  0
    6.5747   -4.7735    2.5232 C   0  0  0  0  0  0  0  0  0  0  0  0
    7.3489   -3.6483    2.7804 C   0  0  0  0  0  0  0  0  0  0  0  0
    8.7127   -3.7623    3.8230 Cl  0  0  0  0  0  0  0  0  0  0  0  0
    7.0126   -2.4204    2.2160 C   0  0  0  0  0  0  0  0  0  0  0  0
    5.8767   -2.2992    1.3980 C   0  0  0  0  0  0  0  0  0  0  0  0
    5.4977   -0.9350    0.8689 C   0  0  0  0  0  0  0  0  0  0  0  0
    4.1794   -0.4683    1.4901 C   0  0  0  0  0  0  0  0  0  0  0  0
    2.3010    1.4005   -1.4478 H   0  0  0  0  0  0  0  0  0  0  0  0
    3.7389    1.2112   -0.4886 H   0  0  0  0  0  0  0  0  0  0  0  0
    0.2095    1.2148    0.8433 H   0  0  0  0  0  0  0  0  0  0  0  0
    0.3231    4.8789    2.6542 H   0  0  0  0  0  0  0  0  0  0  0  0
    2.2559    6.4307    2.4334 H   0  0  0  0  0  0  0  0  0  0  0  0
    4.4935    6.9269    1.5269 H   0  0  0  0  0  0  0  0  0  0  0  0
    5.6478    5.2558    0.1052 H   0  0  0  0  0  0  0  0  0  0  0  0
    4.5958    3.1236   -0.4105 H   0  0  0  0  0  0  0  0  0  0  0  0
    1.7811   -2.6746    0.4623 H   0  0  0  0  0  0  0  0  0  0  0  0
    2.6261   -2.6309    2.0047 H   0  0  0  0  0  0  0  0  0  0  0  0
    4.0734   -3.0057   -0.7030 H   0  0  0  0  0  0  0  0  0  0  0  0
    3.3871   -4.3444    0.1987 H   0  0  0  0  0  0  0  0  0  0  0  0
    4.8512   -5.5590    1.5202 H   0  0  0  0  0  0  0  0  0  0  0  0
    6.8339   -5.7318    2.9651 H   0  0  0  0  0  0  0  0  0  0  0  0
    7.6252   -1.5484    2.4351 H   0  0  0  0  0  0  0  0  0  0  0  0
    5.4440   -0.9636   -0.2269 H   0  0  0  0  0  0  0  0  0  0  0  0
    6.2843   -0.2132    1.1190 H   0  0  0  0  0  0  0  0  0  0  0  0
    4.1549    0.6222    1.4996 H   0  0  0  0  0  0  0  0  0  0  0  0
    4.0926   -0.7807    2.5389 H   0  0  0  0  0  0  0  0  0  0  0  0
  1  2  2  0  0  0  0
  2  3  1  0  0  0  0
  2 14  1  0  0  0  0
  3  4  1  0  0  0  0
  3 26  1  0  0  0  0
  3 27  1  0  0  0  0
  4  5  1  0  0  0  0
  4 13  2  0  0  0  0
  5  6  2  0  0  0  0
  5 28  1  0  0  0  0
  6  7  1  0  0  0  0
  7  8  2  0  0  0  0
  7 29  1  0  0  0  0
  8  9  1  0  0  0  0
  8 13  1  0  0  0  0
  9 10  2  0  0  0  0
  9 30  1  0  0  0  0
 10 11  1  0  0  0  0
 10 31  1  0  0  0  0
 11 12  2  0  0  0  0
 11 32  1  0  0  0  0
 12 13  1  0  0  0  0
 12 33  1  0  0  0  0
 14 15  1  0  0  0  0
 14 25  1  0  0  0  0
 15 16  1  0  0  0  0
 15 34  1  0  0  0  0
 15 35  1  0  0  0  0
 16 17  1  0  0  0  0
 16 36  1  0  0  0  0
 16 37  1  0  0  0  0
 17 18  1  0  0  0  0
 17 23  2  0  0  0  0
 18 19  2  0  0  0  0
 18 38  1  0  0  0  0
 19 20  1  0  0  0  0
 19 39  1  0  0  0  0
 20 21  1  0  0  0  0
 20 22  2  0  0  0  0
 22 23  1  0  0  0  0
 22 40  1  0  0  0  0
 23 24  1  0  0  0  0
 24 25  1  0  0  0  0
 24 41  1  0  0  0  0
 24 42  1  0  0  0  0
 25 43  1  0  0  0  0
 25 44  1  0  0  0  0
M  END
$$$$
