
 OpenBabel07202414203D

 31 32  0  0  0  0  0  0  0  0999 V2000
   -3.3679    2.8971   -1.4015 C   0  0  0  0  0  0  0  0  0  0  0  0
   -2.2263    3.3740   -0.6920 C   0  0  0  0  0  0  0  0  0  0  0  0
   -1.3103    2.3719   -0.4235 C   0  0  0  0  0  0  0  0  0  0  0  0
   -1.8378    0.8664   -1.0551 S   0  0  0  0  0  0  0  0  0  0  0  0
   -3.2854    1.5501   -1.6614 C   0  0  0  0  0  0  0  0  0  0  0  0
   -0.0141    2.4645    0.3446 C   0  0  0  0  0  0  0  0  0  0  0  0
    0.9139    3.4481   -0.2417 N   0  0  0  0  0  0  0  0  0  0  0  0
    1.4670    3.0264   -1.5416 C   0  0  0  0  0  0  0  0  0  0  0  0
    2.4935    1.8803   -1.4754 C   0  0  0  0  0  0  0  0  0  0  0  0
    3.5619    2.1182   -0.5002 N   0  0  0  0  0  0  0  0  0  0  0  0
    3.1564    2.7140    0.7748 C   0  0  0  0  0  0  0  0  0  0  0  0
    2.0316    3.7664    0.6701 C   0  0  0  0  0  0  0  0  0  0  0  0
    4.7693    1.3999   -0.4948 C   0  0  0  0  0  0  0  0  0  0  0  0
    5.5714    1.5230    0.4319 O   0  0  0  0  0  0  0  0  0  0  0  0
    5.0054    0.4561   -1.6692 C   0  0  0  0  0  0  0  0  0  0  0  0
    6.5626   -0.3910   -1.5396 Cl  0  0  0  0  0  0  0  0  0  0  0  0
   -4.2081    3.5127   -1.7011 H   0  0  0  0  0  0  0  0  0  0  0  0
   -2.0821    4.4027   -0.3873 H   0  0  0  0  0  0  0  0  0  0  0  0
   -4.0063    0.9287   -2.1754 H   0  0  0  0  0  0  0  0  0  0  0  0
    0.4541    1.4822    0.4602 H   0  0  0  0  0  0  0  0  0  0  0  0
   -0.2901    2.7954    1.3551 H   0  0  0  0  0  0  0  0  0  0  0  0
    1.9603    3.9017   -1.9855 H   0  0  0  0  0  0  0  0  0  0  0  0
    0.6693    2.7627   -2.2451 H   0  0  0  0  0  0  0  0  0  0  0  0
    2.9323    1.7516   -2.4695 H   0  0  0  0  0  0  0  0  0  0  0  0
    2.0096    0.9348   -1.2065 H   0  0  0  0  0  0  0  0  0  0  0  0
    4.0270    3.1767    1.2528 H   0  0  0  0  0  0  0  0  0  0  0  0
    2.8349    1.8881    1.4208 H   0  0  0  0  0  0  0  0  0  0  0  0
    2.4797    4.7044    0.3157 H   0  0  0  0  0  0  0  0  0  0  0  0
    1.6540    3.9905    1.6762 H   0  0  0  0  0  0  0  0  0  0  0  0
    5.0147    1.0099   -2.6103 H   0  0  0  0  0  0  0  0  0  0  0  0
    4.2242   -0.3082   -1.6816 H   0  0  0  0  0  0  0  0  0  0  0  0
  1  2  1  0  0  0  0
  1  5  2  0  0  0  0
  1 17  1  0  0  0  0
  2  3  2  0  0  0  0
  2 18  1  0  0  0  0
  3  4  1  0  0  0  0
  3  6  1  0  0  0  0
  4  5  1  0  0  0  0
  5 19  1  0  0  0  0
  6  7  1  0  0  0  0
  6 20  1  0  0  0  0
  6 21  1  0  0  0  0
  7  8  1  0  0  0  0
  7 12  1  0  0  0  0
  8  9  1  0  0  0  0
  8 22  1  0  0  0  0
  8 23  1  0  0  0  0
  9 10  1  0  0  0  0
  9 24  1  0  0  0  0
  9 25  1  0  0  0  0
 10 11  1  0  0  0  0
 10 13  1  0  0  0  0
 11 12  1  0  0  0  0
 11 26  1  0  0  0  0
 11 27  1  0  0  0  0
 12 28  1  0  0  0  0
 12 29  1  0  0  0  0
 13 14  2  0  0  0  0
 13 15  1  0  0  0  0
 15 16  1  0  0  0  0
 15 30  1  0  0  0  0
 15 31  1  0  0  0  0
M  END
$$$$
