
 OpenBabel07202414183D

 34 36  0  0  0  0  0  0  0  0999 V2000
   -0.9324   -0.3978    3.4059 Cl  0  0  0  0  0  0  0  0  0  0  0  0
   -0.1376   -0.8190    1.9378 C   0  0  0  0  0  0  0  0  0  0  0  0
   -0.8809   -0.9918    0.7755 C   0  0  0  0  0  0  0  0  0  0  0  0
   -0.2286   -1.3077   -0.4145 C   0  0  0  0  0  0  0  0  0  0  0  0
    1.1630   -1.4460   -0.4412 C   0  0  0  0  0  0  0  0  0  0  0  0
    1.9250   -1.2873    0.7244 C   0  0  0  0  0  0  0  0  0  0  0  0
    3.4389   -1.3290    0.7242 C   0  0  0  0  0  0  0  0  0  0  0  0
    4.1006   -2.3005   -0.2560 C   0  0  0  0  0  0  0  0  0  0  0  0
    3.9687   -2.2401   -1.4739 O   0  0  0  0  0  0  0  0  0  0  0  0
    4.9112   -3.2218    0.3866 N   0  0  0  0  0  0  0  0  0  0  0  0
    5.3252   -4.4362   -0.2177 C   0  0  0  0  0  0  0  0  0  0  0  0
    4.3217   -5.3854   -0.4028 C   0  0  0  0  0  0  0  0  0  0  0  0
    4.4767   -6.6881   -0.1060 N   0  0  0  0  0  0  0  0  0  0  0  0
    5.7111   -7.0686    0.2827 C   0  0  0  0  0  0  0  0  0  0  0  0
    6.8393   -6.2518    0.2427 C   0  0  0  0  0  0  0  0  0  0  0  0
    8.1240   -6.7987    0.4665 C   0  0  0  0  0  0  0  0  0  0  0  0
    9.2559   -6.0018    0.3531 C   0  0  0  0  0  0  0  0  0  0  0  0
    9.1224   -4.6369    0.0887 C   0  0  0  0  0  0  0  0  0  0  0  0
    7.8443   -4.0762   -0.0686 C   0  0  0  0  0  0  0  0  0  0  0  0
    7.8013   -2.3808   -0.4342 Cl  0  0  0  0  0  0  0  0  0  0  0  0
    6.6640   -4.8791   -0.0253 C   0  0  0  0  0  0  0  0  0  0  0  0
    1.2520   -0.9636    1.9178 C   0  0  0  0  0  0  0  0  0  0  0  0
   -1.9603   -0.8686    0.7841 H   0  0  0  0  0  0  0  0  0  0  0  0
   -0.7996   -1.4310   -1.3312 H   0  0  0  0  0  0  0  0  0  0  0  0
    1.6370   -1.6609   -1.3976 H   0  0  0  0  0  0  0  0  0  0  0  0
    3.7692   -1.5819    1.7418 H   0  0  0  0  0  0  0  0  0  0  0  0
    3.8276   -0.3255    0.5203 H   0  0  0  0  0  0  0  0  0  0  0  0
    4.6115   -3.3972    1.3425 H   0  0  0  0  0  0  0  0  0  0  0  0
    3.3145   -5.0944   -0.6911 H   0  0  0  0  0  0  0  0  0  0  0  0
    5.7723   -8.0971    0.6309 H   0  0  0  0  0  0  0  0  0  0  0  0
    8.2442   -7.8552    0.6752 H   0  0  0  0  0  0  0  0  0  0  0  0
   10.2474   -6.4343    0.4613 H   0  0  0  0  0  0  0  0  0  0  0  0
   10.0068   -4.0144   -0.0108 H   0  0  0  0  0  0  0  0  0  0  0  0
    1.8119   -0.8026    2.8369 H   0  0  0  0  0  0  0  0  0  0  0  0
  1  2  1  0  0  0  0
  2  3  1  0  0  0  0
  2 22  2  0  0  0  0
  3  4  2  0  0  0  0
  3 23  1  0  0  0  0
  4  5  1  0  0  0  0
  4 24  1  0  0  0  0
  5  6  2  0  0  0  0
  5 25  1  0  0  0  0
  6  7  1  0  0  0  0
  6 22  1  0  0  0  0
  7  8  1  0  0  0  0
  7 26  1  0  0  0  0
  7 27  1  0  0  0  0
  8  9  2  0  0  0  0
  8 10  1  0  0  0  0
 10 11  1  0  0  0  0
 10 28  1  0  0  0  0
 11 12  1  0  0  0  0
 11 21  2  0  0  0  0
 12 13  2  0  0  0  0
 12 29  1  0  0  0  0
 13 14  1  0  0  0  0
 14 15  2  0  0  0  0
 14 30  1  0  0  0  0
 15 16  1  0  0  0  0
 15 21  1  0  0  0  0
 16 17  2  0  0  0  0
 16 31  1  0  0  0  0
 17 18  1  0  0  0  0
 17 32  1  0  0  0  0
 18 19  2  0  0  0  0
 18 33  1  0  0  0  0
 19 20  1  0  0  0  0
 19 21  1  0  0  0  0
 22 34  1  0  0  0  0
M  END
$$$$
