
 OpenBabel07202414123D

 31 32  0  0  0  0  0  0  0  0999 V2000
    0.9997   -0.1789   -0.0014 C   0  0  0  0  0  0  0  0  0  0  0  0
    2.5297   -0.1628   -0.0333 C   0  0  0  0  0  0  0  0  0  0  0  0
    3.0080    0.3763   -1.3828 C   0  0  0  0  0  0  0  0  0  0  0  0
    3.0705    0.6526    1.1571 C   0  0  0  0  0  0  0  0  0  0  0  0
    4.5987    0.6827    1.2240 C   0  0  0  0  0  0  0  0  0  0  0  0
    5.0870    1.4156    2.3706 N   0  0  0  0  0  0  0  0  0  0  0  0
    5.3355    0.8651    3.6373 C   0  0  0  0  0  0  0  0  0  0  0  0
    5.1299   -0.4308    4.0717 C   0  0  0  0  0  0  0  0  0  0  0  0
    5.5065   -0.7493    5.3834 C   0  0  0  0  0  0  0  0  0  0  0  0
    6.0718    0.2254    6.2290 C   0  0  0  0  0  0  0  0  0  0  0  0
    6.2587    1.5367    5.7962 C   0  0  0  0  0  0  0  0  0  0  0  0
    5.8760    1.8194    4.4999 C   0  0  0  0  0  0  0  0  0  0  0  0
    5.9606    3.0772    3.7606 C   0  0  0  0  0  0  0  0  0  0  0  0
    6.3740    4.1359    4.1737 O   0  0  0  0  0  0  0  0  0  0  0  0
    5.4257    2.7614    2.3399 C   0  0  0  0  0  0  0  0  0  0  0  0
    5.3509    3.5544    1.4252 O   0  0  0  0  0  0  0  0  0  0  0  0
    6.6034   -0.2628    7.9769 Br  0  0  0  0  0  0  0  0  0  0  0  0
    0.5994   -0.7866   -0.8201 H   0  0  0  0  0  0  0  0  0  0  0  0
    0.5907    0.8325   -0.1007 H   0  0  0  0  0  0  0  0  0  0  0  0
    0.6326   -0.6031    0.9389 H   0  0  0  0  0  0  0  0  0  0  0  0
    2.8803   -1.1983    0.0642 H   0  0  0  0  0  0  0  0  0  0  0  0
    2.7410    1.4314   -1.5050 H   0  0  0  0  0  0  0  0  0  0  0  0
    2.5571   -0.1855   -2.2079 H   0  0  0  0  0  0  0  0  0  0  0  0
    4.0929    0.2831   -1.4895 H   0  0  0  0  0  0  0  0  0  0  0  0
    2.6796    0.2211    2.0881 H   0  0  0  0  0  0  0  0  0  0  0  0
    2.6864    1.6798    1.1124 H   0  0  0  0  0  0  0  0  0  0  0  0
    4.9991    1.1777    0.3330 H   0  0  0  0  0  0  0  0  0  0  0  0
    5.0109   -0.3323    1.2404 H   0  0  0  0  0  0  0  0  0  0  0  0
    4.6962   -1.1922    3.4317 H   0  0  0  0  0  0  0  0  0  0  0  0
    5.3643   -1.7666    5.7435 H   0  0  0  0  0  0  0  0  0  0  0  0
    6.6929    2.3032    6.4297 H   0  0  0  0  0  0  0  0  0  0  0  0
  1  2  1  0  0  0  0
  1 18  1  0  0  0  0
  1 19  1  0  0  0  0
  1 20  1  0  0  0  0
  2  3  1  0  0  0  0
  2  4  1  0  0  0  0
  2 21  1  0  0  0  0
  3 22  1  0  0  0  0
  3 23  1  0  0  0  0
  3 24  1  0  0  0  0
  4  5  1  0  0  0  0
  4 25  1  0  0  0  0
  4 26  1  0  0  0  0
  5  6  1  0  0  0  0
  5 27  1  0  0  0  0
  5 28  1  0  0  0  0
  6  7  1  0  0  0  0
  6 15  1  0  0  0  0
  7  8  1  0  0  0  0
  7 12  2  0  0  0  0
  8  9  2  0  0  0  0
  8 29  1  0  0  0  0
  9 10  1  0  0  0  0
  9 30  1  0  0  0  0
 10 11  2  0  0  0  0
 10 17  1  0  0  0  0
 11 12  1  0  0  0  0
 11 31  1  0  0  0  0
 12 13  1  0  0  0  0
 13 14  2  0  0  0  0
 13 15  1  0  0  0  0
 15 16  2  0  0  0  0
M  END
$$$$
