
 OpenBabel07202414173D

 57 62  0  0  1  0  0  0  0  0999 V2000
    1.0134    0.3751    0.0889 Cl  0  0  0  0  0  0  0  0  0  0  0  0
    2.7284    0.2443    0.1164 C   0  0  0  0  0  0  0  0  0  0  0  0
    3.5095    1.3903    0.1010 C   0  0  0  0  0  0  0  0  0  0  0  0
    4.8964    1.2720    0.0938 C   0  0  0  0  0  0  0  0  0  0  0  0
    5.5115    0.0068    0.1200 C   0  0  0  0  0  0  0  0  0  0  0  0
    4.7254   -1.1667    0.1608 C   0  0  0  0  0  0  0  0  0  0  0  0
    3.3231   -1.0171    0.1453 C   0  0  0  0  0  0  0  0  0  0  0  0
    5.3831   -2.5627    0.2223 C   0  0  3  0  0  0  0  0  0  0  0  0
    6.9098   -2.4984    0.0547 C   0  0  0  0  0  0  0  0  0  0  0  0
    7.5732   -1.2903    0.6053 N   0  0  0  0  0  0  0  0  0  0  0  0
    7.9377   -1.1949    2.2431 S   0  0  0  0  0  0  0  0  0  0  0  0
    8.9097   -0.1356    2.4043 O   0  0  0  0  0  0  0  0  0  0  0  0
    6.7230   -1.1822    3.0138 O   0  0  0  0  0  0  0  0  0  0  0  0
    8.7656   -2.6435    2.4262 N   0  0  0  0  0  0  0  0  0  0  0  0
    9.4526   -3.0603    3.6819 C   0  0  0  0  0  0  0  0  0  0  0  0
   10.5535   -3.7665    2.8755 C   0  0  3  0  0  0  0  0  0  0  0  0
   10.4672   -5.2050    2.7919 C   0  0  0  0  0  0  0  0  0  0  0  0
   10.4211   -6.3561    2.7004 N   0  0  0  0  0  0  0  0  0  0  0  0
    9.9921   -3.0096    1.6565 C   0  0  0  0  0  0  0  0  0  0  0  0
    7.0162   -0.0536    0.0436 C   0  0  0  0  0  0  0  0  0  0  0  0
    4.8027   -3.4865   -0.8903 C   0  0  0  0  0  0  0  0  0  0  0  0
    3.8431   -4.4430   -0.1967 C   0  0  0  0  0  0  0  0  0  0  0  0
    3.7751   -4.0036    1.1665 N   0  0  0  0  0  0  0  0  0  0  0  0
    2.8066   -4.4910    2.0862 C   0  0  0  0  0  0  0  0  0  0  0  0
    2.2044   -5.7249    1.8203 C   0  0  0  0  0  0  0  0  0  0  0  0
    1.1082   -6.2111    2.4331 N   0  0  0  0  0  0  0  0  0  0  0  0
    0.6116   -5.4536    3.4282 C   0  0  0  0  0  0  0  0  0  0  0  0
    1.1828   -4.2694    3.8896 C   0  0  0  0  0  0  0  0  0  0  0  0
    0.6417   -3.6311    5.0202 C   0  0  0  0  0  0  0  0  0  0  0  0
    1.1601   -2.4239    5.4711 C   0  0  0  0  0  0  0  0  0  0  0  0
    2.1896   -1.8216    4.7618 C   0  0  0  0  0  0  0  0  0  0  0  0
    2.7440   -2.4579    3.6398 C   0  0  0  0  0  0  0  0  0  0  0  0
    2.2951   -3.7317    3.1903 C   0  0  0  0  0  0  0  0  0  0  0  0
    4.9649   -3.3522    1.4793 C   0  0  0  0  0  0  0  0  0  0  0  0
    5.5876   -3.5011    2.5157 O   0  0  0  0  0  0  0  0  0  0  0  0
    3.0487    2.3738    0.0903 H   0  0  0  0  0  0  0  0  0  0  0  0
    5.5016    2.1771    0.0738 H   0  0  0  0  0  0  0  0  0  0  0  0
    2.6665   -1.8825    0.1589 H   0  0  0  0  0  0  0  0  0  0  0  0
    7.1426   -2.4668   -1.0231 H   0  0  0  0  0  0  0  0  0  0  0  0
    7.3935   -3.4147    0.4042 H   0  0  0  0  0  0  0  0  0  0  0  0
    8.8298   -3.6924    4.3190 H   0  0  0  0  0  0  0  0  0  0  0  0
    9.8149   -2.2043    4.2653 H   0  0  0  0  0  0  0  0  0  0  0  0
   11.5674   -3.4296    3.1339 H   0  0  0  0  0  0  0  0  0  0  0  0
    9.7685   -3.6063    0.7649 H   0  0  0  0  0  0  0  0  0  0  0  0
   10.5761   -2.1328    1.3521 H   0  0  0  0  0  0  0  0  0  0  0  0
    7.3125    0.0065   -1.0120 H   0  0  0  0  0  0  0  0  0  0  0  0
    7.4626    0.8240    0.5266 H   0  0  0  0  0  0  0  0  0  0  0  0
    5.5809   -4.0766   -1.3915 H   0  0  0  0  0  0  0  0  0  0  0  0
    4.2921   -2.9273   -1.6829 H   0  0  0  0  0  0  0  0  0  0  0  0
    4.2701   -5.4539   -0.2084 H   0  0  0  0  0  0  0  0  0  0  0  0
    2.8559   -4.4534   -0.6671 H   0  0  0  0  0  0  0  0  0  0  0  0
    2.6147   -6.4004    1.0764 H   0  0  0  0  0  0  0  0  0  0  0  0
   -0.3100   -5.8377    3.8589 H   0  0  0  0  0  0  0  0  0  0  0  0
   -0.1784   -4.0877    5.5718 H   0  0  0  0  0  0  0  0  0  0  0  0
    0.7591   -1.9571    6.3672 H   0  0  0  0  0  0  0  0  0  0  0  0
    2.5801   -0.8600    5.0879 H   0  0  0  0  0  0  0  0  0  0  0  0
    3.5566   -1.9398    3.1371 H   0  0  0  0  0  0  0  0  0  0  0  0
  1  2  1  0  0  0  0
  2  3  1  0  0  0  0
  2  7  2  0  0  0  0
  3  4  2  0  0  0  0
  3 36  1  0  0  0  0
  4  5  1  0  0  0  0
  4 37  1  0  0  0  0
  5  6  2  0  0  0  0
  5 20  1  0  0  0  0
  6  7  1  0  0  0  0
  6  8  1  0  0  0  0
  7 38  1  0  0  0  0
  8  9  1  0  0  0  0
  8 21  1  0  0  0  0
  8 34  1  0  0  0  0
  9 10  1  0  0  0  0
  9 39  1  0  0  0  0
  9 40  1  0  0  0  0
 10 11  1  0  0  0  0
 10 20  1  0  0  0  0
 11 12  2  0  0  0  0
 11 13  2  0  0  0  0
 11 14  1  0  0  0  0
 14 15  1  0  0  0  0
 14 19  1  0  0  0  0
 15 16  1  0  0  0  0
 15 41  1  0  0  0  0
 15 42  1  0  0  0  0
 16 17  1  0  0  0  0
 16 19  1  0  0  0  0
 16 43  1  0  0  0  0
 17 18  3  0  0  0  0
 19 44  1  0  0  0  0
 19 45  1  0  0  0  0
 20 46  1  0  0  0  0
 20 47  1  0  0  0  0
 21 22  1  0  0  0  0
 21 48  1  0  0  0  0
 21 49  1  0  0  0  0
 22 23  1  0  0  0  0
 22 50  1  0  0  0  0
 22 51  1  0  0  0  0
 23 24  1  0  0  0  0
 23 34  1  0  0  0  0
 24 25  1  0  0  0  0
 24 33  2  0  0  0  0
 25 26  2  0  0  0  0
 25 52  1  0  0  0  0
 26 27  1  0  0  0  0
 27 28  2  0  0  0  0
 27 53  1  0  0  0  0
 28 29  1  0  0  0  0
 28 33  1  0  0  0  0
 29 30  2  0  0  0  0
 29 54  1  0  0  0  0
 30 31  1  0  0  0  0
 30 55  1  0  0  0  0
 31 32  2  0  0  0  0
 31 56  1  0  0  0  0
 32 33  1  0  0  0  0
 32 57  1  0  0  0  0
 34 35  2  0  0  0  0
M  END
$$$$
