
 OpenBabel07202414143D

 66 71  0  0  1  0  0  0  0  0999 V2000
    1.1151    1.4271   -1.1377 C   0  0  0  0  0  0  0  0  0  0  0  0
    2.5368    1.2124   -1.0410 N   0  0  0  0  0  0  0  0  0  0  0  0
    3.1056   -0.0188   -1.2963 C   0  0  0  0  0  0  0  0  0  0  0  0
    2.4714   -0.9963   -1.6904 O   0  0  0  0  0  0  0  0  0  0  0  0
    4.6205   -0.0615   -1.0644 C   0  0  0  0  0  0  0  0  0  0  0  0
    5.4383    0.3199   -2.2115 N   0  0  0  0  0  0  0  0  0  0  0  0
    5.8540   -0.6723   -3.1930 C   0  0  0  0  0  0  0  0  0  0  0  0
    7.3132   -0.4563   -3.7445 C   0  0  2  0  0  0  0  0  0  0  0  0
    7.4583   -1.4282   -4.9742 C   0  0  1  0  0  0  0  0  0  0  0  0
    8.3621   -1.1383   -6.2125 C   0  0  0  0  0  0  0  0  0  0  0  0
    8.5774   -2.3571   -7.1183 C   0  0  0  0  0  0  0  0  0  0  0  0
    7.5287   -3.2358   -7.4315 C   0  0  0  0  0  0  0  0  0  0  0  0
    7.8019   -4.5011   -7.9572 C   0  0  0  0  0  0  0  0  0  0  0  0
    9.1143   -4.8790   -8.2330 C   0  0  0  0  0  0  0  0  0  0  0  0
   10.1560   -3.9816   -8.0133 C   0  0  0  0  0  0  0  0  0  0  0  0
    9.8901   -2.7241   -7.4671 C   0  0  0  0  0  0  0  0  0  0  0  0
    7.9800   -2.7041   -4.3369 C   0  0  0  0  0  0  0  0  0  0  0  0
    8.5437   -2.4434   -3.0701 N   0  0  0  0  0  0  0  0  0  0  0  0
    9.3183   -3.4815   -2.4007 C   0  0  0  0  0  0  0  0  0  0  0  0
    9.7660   -3.2744   -1.0945 C   0  0  0  0  0  0  0  0  0  0  0  0
   10.4458   -4.1825   -0.3567 N   0  0  0  0  0  0  0  0  0  0  0  0
   10.7881   -5.3373   -0.9428 C   0  0  0  0  0  0  0  0  0  0  0  0
   10.5297   -5.6519   -2.2707 C   0  0  0  0  0  0  0  0  0  0  0  0
   11.0996   -6.8308   -2.8166 C   0  0  0  0  0  0  0  0  0  0  0  0
   10.9031   -7.1916   -4.1428 C   0  0  0  0  0  0  0  0  0  0  0  0
   10.0291   -6.4416   -4.8963 C   0  0  0  0  0  0  0  0  0  0  0  0
    9.4241   -5.3067   -4.3340 C   0  0  0  0  0  0  0  0  0  0  0  0
    9.7129   -4.7706   -3.0291 C   0  0  0  0  0  0  0  0  0  0  0  0
    8.2634   -1.1076   -2.6824 C   0  0  0  0  0  0  0  0  0  0  0  0
    8.6307   -0.5512   -1.6575 O   0  0  0  0  0  0  0  0  0  0  0  0
    7.5153    1.0523   -4.0074 C   0  0  0  0  0  0  0  0  0  0  0  0
    8.5577    1.5656   -4.8017 C   0  0  0  0  0  0  0  0  0  0  0  0
    8.6479    2.9263   -5.1349 C   0  0  0  0  0  0  0  0  0  0  0  0
    9.8623    3.4539   -6.2353 Cl  0  0  0  0  0  0  0  0  0  0  0  0
    7.7589    3.8465   -4.6073 C   0  0  0  0  0  0  0  0  0  0  0  0
    6.7646    3.3937   -3.7514 C   0  0  0  0  0  0  0  0  0  0  0  0
    6.6332    2.0189   -3.4623 C   0  0  0  0  0  0  0  0  0  0  0  0
    5.5697    1.6615   -2.4906 C   0  0  0  0  0  0  0  0  0  0  0  0
    4.8866    2.5265   -1.9481 O   0  0  0  0  0  0  0  0  0  0  0  0
    0.8911    2.4613   -0.8639 H   0  0  0  0  0  0  0  0  0  0  0  0
    0.5999    0.7458   -0.4532 H   0  0  0  0  0  0  0  0  0  0  0  0
    0.7822    1.2297   -2.1588 H   0  0  0  0  0  0  0  0  0  0  0  0
    3.1660    2.0134   -1.1287 H   0  0  0  0  0  0  0  0  0  0  0  0
    4.9084   -1.0604   -0.7259 H   0  0  0  0  0  0  0  0  0  0  0  0
    4.8563    0.6267   -0.2413 H   0  0  0  0  0  0  0  0  0  0  0  0
    5.1314   -0.5806   -4.0178 H   0  0  0  0  0  0  0  0  0  0  0  0
    5.7290   -1.6721   -2.7617 H   0  0  0  0  0  0  0  0  0  0  0  0
    6.4631   -1.6279   -5.3879 H   0  0  0  0  0  0  0  0  0  0  0  0
    7.9512   -0.3225   -6.8137 H   0  0  0  0  0  0  0  0  0  0  0  0
    9.3578   -0.8655   -5.8528 H   0  0  0  0  0  0  0  0  0  0  0  0
    6.4990   -2.9867   -7.1907 H   0  0  0  0  0  0  0  0  0  0  0  0
    6.9912   -5.2082   -8.1161 H   0  0  0  0  0  0  0  0  0  0  0  0
    9.3273   -5.8782   -8.6049 H   0  0  0  0  0  0  0  0  0  0  0  0
   11.1813   -4.2765   -8.2247 H   0  0  0  0  0  0  0  0  0  0  0  0
   10.7299   -2.0674   -7.2444 H   0  0  0  0  0  0  0  0  0  0  0  0
    8.8238   -3.0475   -4.9144 H   0  0  0  0  0  0  0  0  0  0  0  0
    7.1831   -3.4599   -4.2364 H   0  0  0  0  0  0  0  0  0  0  0  0
    9.5966   -2.3424   -0.5636 H   0  0  0  0  0  0  0  0  0  0  0  0
   11.3080   -6.0377   -0.2954 H   0  0  0  0  0  0  0  0  0  0  0  0
   11.7506   -7.4609   -2.2127 H   0  0  0  0  0  0  0  0  0  0  0  0
   11.4012   -8.0525   -4.5760 H   0  0  0  0  0  0  0  0  0  0  0  0
    9.8150   -6.7128   -5.9259 H   0  0  0  0  0  0  0  0  0  0  0  0
    8.7015   -4.8671   -5.0026 H   0  0  0  0  0  0  0  0  0  0  0  0
    9.3435    0.9345   -5.1897 H   0  0  0  0  0  0  0  0  0  0  0  0
    7.8435    4.9054   -4.8346 H   0  0  0  0  0  0  0  0  0  0  0  0
    6.0895    4.1193   -3.2987 H   0  0  0  0  0  0  0  0  0  0  0  0
  1  2  1  0  0  0  0
  1 40  1  0  0  0  0
  1 41  1  0  0  0  0
  1 42  1  0  0  0  0
  2  3  1  0  0  0  0
  2 43  1  0  0  0  0
  3  4  2  0  0  0  0
  3  5  1  0  0  0  0
  5  6  1  0  0  0  0
  5 44  1  0  0  0  0
  5 45  1  0  0  0  0
  6  7  1  0  0  0  0
  6 38  1  0  0  0  0
  7  8  1  0  0  0  0
  7 46  1  0  0  0  0
  7 47  1  0  0  0  0
  8  9  1  0  0  0  0
  8 29  1  1  0  0  0
  8 31  1  0  0  0  0
  9 17  1  0  0  0  0
  9 10  1  0  0  0  0
  9 48  1  6  0  0  0
 10 11  1  0  0  0  0
 10 49  1  0  0  0  0
 10 50  1  0  0  0  0
 11 12  1  0  0  0  0
 11 16  2  0  0  0  0
 12 13  2  0  0  0  0
 12 51  1  0  0  0  0
 13 14  1  0  0  0  0
 13 52  1  0  0  0  0
 14 15  2  0  0  0  0
 14 53  1  0  0  0  0
 15 16  1  0  0  0  0
 15 54  1  0  0  0  0
 16 55  1  0  0  0  0
 17 18  1  0  0  0  0
 17 56  1  0  0  0  0
 17 57  1  0  0  0  0
 18 19  1  0  0  0  0
 18 29  1  0  0  0  0
 19 20  1  0  0  0  0
 19 28  2  0  0  0  0
 20 21  2  0  0  0  0
 20 58  1  0  0  0  0
 21 22  1  0  0  0  0
 22 23  2  0  0  0  0
 22 59  1  0  0  0  0
 23 24  1  0  0  0  0
 23 28  1  0  0  0  0
 24 25  2  0  0  0  0
 24 60  1  0  0  0  0
 25 26  1  0  0  0  0
 25 61  1  0  0  0  0
 26 27  2  0  0  0  0
 26 62  1  0  0  0  0
 27 28  1  0  0  0  0
 27 63  1  0  0  0  0
 29 30  2  0  0  0  0
 31 32  1  0  0  0  0
 31 37  2  0  0  0  0
 32 33  2  0  0  0  0
 32 64  1  0  0  0  0
 33 34  1  0  0  0  0
 33 35  1  0  0  0  0
 35 36  2  0  0  0  0
 35 65  1  0  0  0  0
 36 37  1  0  0  0  0
 36 66  1  0  0  0  0
 37 38  1  0  0  0  0
 38 39  2  0  0  0  0
M  END
$$$$
