
 OpenBabel07202414133D

 36 37  0  0  1  0  0  0  0  0999 V2000
    0.9004    0.0811    0.1473 C   0  0  0  0  0  0  0  0  0  0  0  0
    2.4325    0.0525    0.0989 C   0  0  3  0  0  0  0  0  0  0  0  0
    2.9932    1.0522   -0.9231 C   0  0  0  0  0  0  0  0  0  0  0  0
    2.6857    0.6294   -2.3539 C   0  0  0  0  0  0  0  0  0  0  0  0
    2.9923   -0.7607   -2.6204 N   0  0  0  0  0  0  0  0  0  0  0  0
    2.7317   -1.7393   -1.6893 C   0  0  0  0  0  0  0  0  0  0  0  0
    2.4075   -2.8706   -2.0366 O   0  0  0  0  0  0  0  0  0  0  0  0
    2.9979   -1.3432   -0.2234 C   0  0  3  0  0  0  0  0  0  0  0  0
    2.5426   -2.3580    0.7154 N   0  0  0  0  0  0  0  0  0  0  0  0
    3.1476   -2.5001    1.9442 C   0  0  0  0  0  0  0  0  0  0  0  0
    4.0952   -1.8028    2.3016 O   0  0  0  0  0  0  0  0  0  0  0  0
    2.5304   -3.5442    2.8572 C   0  0  0  0  0  0  0  0  0  0  0  0
    1.4822   -2.9560    3.7731 C   0  0  0  0  0  0  0  0  0  0  0  0
    1.8146   -1.9339    4.6769 C   0  0  0  0  0  0  0  0  0  0  0  0
    0.8410   -1.3637    5.4993 C   0  0  0  0  0  0  0  0  0  0  0  0
   -0.4763   -1.8147    5.4348 C   0  0  0  0  0  0  0  0  0  0  0  0
   -0.8099   -2.8438    4.5577 C   0  0  0  0  0  0  0  0  0  0  0  0
   -2.4352   -3.4046    4.4785 Cl  0  0  0  0  0  0  0  0  0  0  0  0
    0.1601   -3.4186    3.7342 C   0  0  0  0  0  0  0  0  0  0  0  0
    0.5439    1.0925    0.3760 H   0  0  0  0  0  0  0  0  0  0  0  0
    0.5187   -0.5825    0.9318 H   0  0  0  0  0  0  0  0  0  0  0  0
    0.4459   -0.2294   -0.7978 H   0  0  0  0  0  0  0  0  0  0  0  0
    2.7872    0.3542    1.0922 H   0  0  0  0  0  0  0  0  0  0  0  0
    4.0817    1.1132   -0.7950 H   0  0  0  0  0  0  0  0  0  0  0  0
    2.5972    2.0576   -0.7378 H   0  0  0  0  0  0  0  0  0  0  0  0
    3.2463    1.2412   -3.0680 H   0  0  0  0  0  0  0  0  0  0  0  0
    1.6196    0.7636   -2.5700 H   0  0  0  0  0  0  0  0  0  0  0  0
    2.8579   -1.0843   -3.5688 H   0  0  0  0  0  0  0  0  0  0  0  0
    4.0942   -1.3012   -0.1388 H   0  0  0  0  0  0  0  0  0  0  0  0
    1.8169   -2.9975    0.4115 H   0  0  0  0  0  0  0  0  0  0  0  0
    3.3300   -3.9946    3.4564 H   0  0  0  0  0  0  0  0  0  0  0  0
    2.1102   -4.3545    2.2489 H   0  0  0  0  0  0  0  0  0  0  0  0
    2.8384   -1.5649    4.7364 H   0  0  0  0  0  0  0  0  0  0  0  0
    1.1115   -0.5645    6.1854 H   0  0  0  0  0  0  0  0  0  0  0  0
   -1.2342   -1.3622    6.0694 H   0  0  0  0  0  0  0  0  0  0  0  0
   -0.1207   -4.2253    3.0603 H   0  0  0  0  0  0  0  0  0  0  0  0
  1  2  1  0  0  0  0
  1 20  1  0  0  0  0
  1 21  1  0  0  0  0
  1 22  1  0  0  0  0
  2  3  1  0  0  0  0
  2  8  1  0  0  0  0
  2 23  1  0  0  0  0
  3  4  1  0  0  0  0
  3 24  1  0  0  0  0
  3 25  1  0  0  0  0
  4  5  1  0  0  0  0
  4 26  1  0  0  0  0
  4 27  1  0  0  0  0
  5  6  1  0  0  0  0
  5 28  1  0  0  0  0
  6  7  2  0  0  0  0
  6  8  1  0  0  0  0
  8  9  1  0  0  0  0
  8 29  1  0  0  0  0
  9 10  1  0  0  0  0
  9 30  1  0  0  0  0
 10 11  2  0  0  0  0
 10 12  1  0  0  0  0
 12 13  1  0  0  0  0
 12 31  1  0  0  0  0
 12 32  1  0  0  0  0
 13 14  1  0  0  0  0
 13 19  2  0  0  0  0
 14 15  2  0  0  0  0
 14 33  1  0  0  0  0
 15 16  1  0  0  0  0
 15 34  1  0  0  0  0
 16 17  2  0  0  0  0
 16 35  1  0  0  0  0
 17 18  1  0  0  0  0
 17 19  1  0  0  0  0
 19 36  1  0  0  0  0
M  END
$$$$
