
 OpenBabel07202414153D

 43 45  0  0  0  0  0  0  0  0999 V2000
    0.8199    4.9835    0.9682 C   0  0  0  0  0  0  0  0  0  0  0  0
    2.4910    5.5212    0.6908 S   0  0  0  0  0  0  0  0  0  0  0  0
    2.4321    6.6965   -0.1633 O   0  0  0  0  0  0  0  0  0  0  0  0
    3.1470    5.5627    1.9849 O   0  0  0  0  0  0  0  0  0  0  0  0
    3.2314    4.1942   -0.2507 C   0  0  0  0  0  0  0  0  0  0  0  0
    2.4140    3.1677   -0.5522 N   0  0  0  0  0  0  0  0  0  0  0  0
    3.0163    2.1326   -1.1694 C   0  0  0  0  0  0  0  0  0  0  0  0
    4.3614    2.0877   -1.4855 C   0  0  0  0  0  0  0  0  0  0  0  0
    4.9456    0.6495   -2.2244 Cl  0  0  0  0  0  0  0  0  0  0  0  0
    5.0950    3.2220   -1.1413 C   0  0  0  0  0  0  0  0  0  0  0  0
    6.5545    3.3610   -1.4845 C   0  0  0  0  0  0  0  0  0  0  0  0
    7.0878    2.5073   -2.1810 O   0  0  0  0  0  0  0  0  0  0  0  0
    7.1948    4.4832   -0.9604 N   0  0  0  0  0  0  0  0  0  0  0  0
    8.5374    4.8834   -1.2158 C   0  0  0  0  0  0  0  0  0  0  0  0
    9.2926    4.2843   -2.2376 C   0  0  0  0  0  0  0  0  0  0  0  0
   10.6138    4.6557   -2.4980 C   0  0  0  0  0  0  0  0  0  0  0  0
   11.2101    5.6582   -1.7526 C   0  0  0  0  0  0  0  0  0  0  0  0
   10.4848    6.2762   -0.7384 C   0  0  0  0  0  0  0  0  0  0  0  0
    9.1513    5.8998   -0.4479 C   0  0  0  0  0  0  0  0  0  0  0  0
    8.5164    6.5457    0.7702 C   0  0  0  0  0  0  0  0  0  0  0  0
    8.6938    5.8095    2.0875 C   0  0  0  0  0  0  0  0  0  0  0  0
    9.3615    4.5799    2.2030 C   0  0  0  0  0  0  0  0  0  0  0  0
    9.4625    3.9296    3.4353 C   0  0  0  0  0  0  0  0  0  0  0  0
    8.9065    4.5020    4.5751 C   0  0  0  0  0  0  0  0  0  0  0  0
    8.2641    5.7341    4.4864 C   0  0  0  0  0  0  0  0  0  0  0  0
    8.1606    6.3840    3.2534 C   0  0  0  0  0  0  0  0  0  0  0  0
    4.5532    4.2976   -0.5003 N   0  0  0  0  0  0  0  0  0  0  0  0
    0.3211    5.7329    1.5873 H   0  0  0  0  0  0  0  0  0  0  0  0
    0.8285    4.0269    1.4959 H   0  0  0  0  0  0  0  0  0  0  0  0
    0.3015    4.8968    0.0107 H   0  0  0  0  0  0  0  0  0  0  0  0
    2.3587    1.2972   -1.4053 H   0  0  0  0  0  0  0  0  0  0  0  0
    6.6437    5.0372   -0.3132 H   0  0  0  0  0  0  0  0  0  0  0  0
    8.8809    3.5097   -2.8758 H   0  0  0  0  0  0  0  0  0  0  0  0
   11.1669    4.1521   -3.2864 H   0  0  0  0  0  0  0  0  0  0  0  0
   12.2380    5.9483   -1.9498 H   0  0  0  0  0  0  0  0  0  0  0  0
   10.9778    7.0436   -0.1433 H   0  0  0  0  0  0  0  0  0  0  0  0
    7.4485    6.7117    0.5888 H   0  0  0  0  0  0  0  0  0  0  0  0
    8.9460    7.5513    0.8897 H   0  0  0  0  0  0  0  0  0  0  0  0
    9.8143    4.1007    1.3378 H   0  0  0  0  0  0  0  0  0  0  0  0
    9.9739    2.9726    3.4992 H   0  0  0  0  0  0  0  0  0  0  0  0
    8.9754    3.9888    5.5303 H   0  0  0  0  0  0  0  0  0  0  0  0
    7.8374    6.1880    5.3769 H   0  0  0  0  0  0  0  0  0  0  0  0
    7.6538    7.3460    3.2082 H   0  0  0  0  0  0  0  0  0  0  0  0
  1  2  1  0  0  0  0
  1 28  1  0  0  0  0
  1 29  1  0  0  0  0
  1 30  1  0  0  0  0
  2  3  2  0  0  0  0
  2  4  2  0  0  0  0
  2  5  1  0  0  0  0
  5  6  1  0  0  0  0
  5 27  2  0  0  0  0
  6  7  2  0  0  0  0
  7  8  1  0  0  0  0
  7 31  1  0  0  0  0
  8  9  1  0  0  0  0
  8 10  2  0  0  0  0
 10 11  1  0  0  0  0
 10 27  1  0  0  0  0
 11 12  2  0  0  0  0
 11 13  1  0  0  0  0
 13 14  1  0  0  0  0
 13 32  1  0  0  0  0
 14 15  1  0  0  0  0
 14 19  2  0  0  0  0
 15 16  2  0  0  0  0
 15 33  1  0  0  0  0
 16 17  1  0  0  0  0
 16 34  1  0  0  0  0
 17 18  2  0  0  0  0
 17 35  1  0  0  0  0
 18 19  1  0  0  0  0
 18 36  1  0  0  0  0
 19 20  1  0  0  0  0
 20 21  1  0  0  0  0
 20 37  1  0  0  0  0
 20 38  1  0  0  0  0
 21 22  1  0  0  0  0
 21 26  2  0  0  0  0
 22 23  2  0  0  0  0
 22 39  1  0  0  0  0
 23 24  1  0  0  0  0
 23 40  1  0  0  0  0
 24 25  2  0  0  0  0
 24 41  1  0  0  0  0
 25 26  1  0  0  0  0
 25 42  1  0  0  0  0
 26 43  1  0  0  0  0
M  END
$$$$
