
 OpenBabel07202414133D

 64 69  0  0  1  0  0  0  0  0999 V2000
    2.8267    0.6796    1.3195 C   0  0  0  0  0  0  0  0  0  0  0  0
    2.6104    0.4662   -0.1741 C   0  0  0  0  0  0  0  0  0  0  0  0
    3.1923   -0.8608   -0.7092 C   0  0  2  0  0  0  0  0  0  0  0  0
    4.6940   -0.9367   -0.5103 C   0  0  0  0  0  0  0  0  0  0  0  0
    5.3096   -0.9630   -1.8099 N   0  0  0  0  0  0  0  0  0  0  0  0
    6.7375   -0.8025   -1.8672 C   0  0  0  0  0  0  0  0  0  0  0  0
    7.4675   -1.4168   -0.8345 C   0  0  0  0  0  0  0  0  0  0  0  0
    8.7379   -1.1473   -0.4796 N   0  0  0  0  0  0  0  0  0  0  0  0
    9.3673   -0.2407   -1.2410 C   0  0  0  0  0  0  0  0  0  0  0  0
    8.8268    0.3413   -2.3827 C   0  0  0  0  0  0  0  0  0  0  0  0
    9.6418    1.1899   -3.1488 C   0  0  0  0  0  0  0  0  0  0  0  0
    9.1418    1.8037   -4.2880 C   0  0  0  0  0  0  0  0  0  0  0  0
    7.8115    1.6141   -4.6301 C   0  0  0  0  0  0  0  0  0  0  0  0
    6.9820    0.7730   -3.8660 C   0  0  0  0  0  0  0  0  0  0  0  0
    7.4641    0.0773   -2.7280 C   0  0  0  0  0  0  0  0  0  0  0  0
    4.3901   -1.2004   -2.8234 C   0  0  0  0  0  0  0  0  0  0  0  0
    4.6467   -1.4045   -4.0044 O   0  0  0  0  0  0  0  0  0  0  0  0
    2.9503   -1.2181   -2.2153 C   0  0  1  0  0  0  0  0  0  0  0  0
    2.3854   -2.6642   -2.3676 C   0  0  0  0  0  0  0  0  0  0  0  0
    0.9031   -2.7877   -2.0768 N   0  0  0  0  0  0  0  0  0  0  0  0
    0.3910   -2.9062   -0.4584 S   0  0  0  0  0  0  0  0  0  0  0  0
    1.3883   -3.6717    0.2536 O   0  0  0  0  0  0  0  0  0  0  0  0
    0.0369   -1.5688   -0.0402 O   0  0  0  0  0  0  0  0  0  0  0  0
   -1.1100   -3.9242   -0.5231 C   0  0  0  0  0  0  0  0  0  0  0  0
   -1.7335   -3.9163    0.8695 C   0  0  0  0  0  0  0  0  0  0  0  0
   -2.2649   -2.6460    1.3219 C   0  0  0  0  0  0  0  0  0  0  0  0
   -2.7459   -1.6603    1.6968 N   0  0  0  0  0  0  0  0  0  0  0  0
   -2.6098   -5.1201    1.2322 C   0  0  0  0  0  0  0  0  0  0  0  0
   -1.3046   -4.9190    1.9358 C   0  0  0  0  0  0  0  0  0  0  0  0
    0.1149   -1.9047   -2.9729 C   0  0  0  0  0  0  0  0  0  0  0  0
    0.6801   -0.5117   -3.1595 C   0  0  0  0  0  0  0  0  0  0  0  0
   -0.1768    0.5126   -3.6034 C   0  0  0  0  0  0  0  0  0  0  0  0
    0.2909    1.8179   -3.7743 C   0  0  0  0  0  0  0  0  0  0  0  0
    1.6349    2.0994   -3.5728 C   0  0  0  0  0  0  0  0  0  0  0  0
    2.2114    3.7143   -3.7085 Cl  0  0  0  0  0  0  0  0  0  0  0  0
    2.5114    1.0887   -3.1936 C   0  0  0  0  0  0  0  0  0  0  0  0
    2.0393   -0.2137   -2.9239 C   0  0  0  0  0  0  0  0  0  0  0  0
    2.1376    1.4479    1.6850 H   0  0  0  0  0  0  0  0  0  0  0  0
    3.8419    1.0344    1.5216 H   0  0  0  0  0  0  0  0  0  0  0  0
    2.6550   -0.2361    1.8918 H   0  0  0  0  0  0  0  0  0  0  0  0
    3.0506    1.3254   -0.6876 H   0  0  0  0  0  0  0  0  0  0  0  0
    1.5311    0.4883   -0.3556 H   0  0  0  0  0  0  0  0  0  0  0  0
    2.7749   -1.6419   -0.0717 H   0  0  0  0  0  0  0  0  0  0  0  0
    4.9399   -1.8572    0.0278 H   0  0  0  0  0  0  0  0  0  0  0  0
    5.0924   -0.0793    0.0412 H   0  0  0  0  0  0  0  0  0  0  0  0
    7.0185   -2.1908   -0.2180 H   0  0  0  0  0  0  0  0  0  0  0  0
   10.3629    0.0189   -0.8878 H   0  0  0  0  0  0  0  0  0  0  0  0
   10.6804    1.3608   -2.8714 H   0  0  0  0  0  0  0  0  0  0  0  0
    9.7859    2.4500   -4.8825 H   0  0  0  0  0  0  0  0  0  0  0  0
    7.4110    2.1163   -5.5089 H   0  0  0  0  0  0  0  0  0  0  0  0
    5.9524    0.6543   -4.1898 H   0  0  0  0  0  0  0  0  0  0  0  0
    2.9455   -3.3864   -1.7619 H   0  0  0  0  0  0  0  0  0  0  0  0
    2.5190   -3.0116   -3.4036 H   0  0  0  0  0  0  0  0  0  0  0  0
   -0.8079   -4.9319   -0.8266 H   0  0  0  0  0  0  0  0  0  0  0  0
   -1.8050   -3.5061   -1.2547 H   0  0  0  0  0  0  0  0  0  0  0  0
   -2.6862   -5.9606    0.5515 H   0  0  0  0  0  0  0  0  0  0  0  0
   -3.5202   -4.9552    1.8054 H   0  0  0  0  0  0  0  0  0  0  0  0
   -0.5078   -5.6242    1.7270 H   0  0  0  0  0  0  0  0  0  0  0  0
   -1.3469   -4.6256    2.9829 H   0  0  0  0  0  0  0  0  0  0  0  0
   -0.9216   -1.8421   -2.6228 H   0  0  0  0  0  0  0  0  0  0  0  0
    0.0715   -2.3885   -3.9583 H   0  0  0  0  0  0  0  0  0  0  0  0
   -1.2318    0.3113   -3.7803 H   0  0  0  0  0  0  0  0  0  0  0  0
   -0.3991    2.6107   -4.0490 H   0  0  0  0  0  0  0  0  0  0  0  0
    3.5543    1.3451   -3.0150 H   0  0  0  0  0  0  0  0  0  0  0  0
  1  2  1  0  0  0  0
  1 38  1  0  0  0  0
  1 39  1  0  0  0  0
  1 40  1  0  0  0  0
  2  3  1  0  0  0  0
  2 41  1  0  0  0  0
  2 42  1  0  0  0  0
  3  4  1  0  0  0  0
  3 18  1  0  0  0  0
  3 43  1  1  0  0  0
  4  5  1  0  0  0  0
  4 44  1  0  0  0  0
  4 45  1  0  0  0  0
  5  6  1  0  0  0  0
  5 16  1  0  0  0  0
  6  7  1  0  0  0  0
  6 15  2  0  0  0  0
  7  8  2  0  0  0  0
  7 46  1  0  0  0  0
  8  9  1  0  0  0  0
  9 10  2  0  0  0  0
  9 47  1  0  0  0  0
 10 11  1  0  0  0  0
 10 15  1  0  0  0  0
 11 12  2  0  0  0  0
 11 48  1  0  0  0  0
 12 13  1  0  0  0  0
 12 49  1  0  0  0  0
 13 14  2  0  0  0  0
 13 50  1  0  0  0  0
 14 15  1  0  0  0  0
 14 51  1  0  0  0  0
 16 17  2  0  0  0  0
 18 16  1  6  0  0  0
 18 19  1  0  0  0  0
 18 37  1  0  0  0  0
 19 20  1  0  0  0  0
 19 52  1  0  0  0  0
 19 53  1  0  0  0  0
 20 21  1  0  0  0  0
 20 30  1  0  0  0  0
 21 22  2  0  0  0  0
 21 23  2  0  0  0  0
 21 24  1  0  0  0  0
 24 25  1  0  0  0  0
 24 54  1  0  0  0  0
 24 55  1  0  0  0  0
 25 26  1  0  0  0  0
 25 28  1  0  0  0  0
 25 29  1  0  0  0  0
 26 27  3  0  0  0  0
 28 29  1  0  0  0  0
 28 56  1  0  0  0  0
 28 57  1  0  0  0  0
 29 58  1  0  0  0  0
 29 59  1  0  0  0  0
 30 31  1  0  0  0  0
 30 60  1  0  0  0  0
 30 61  1  0  0  0  0
 31 32  1  0  0  0  0
 31 37  2  0  0  0  0
 32 33  2  0  0  0  0
 32 62  1  0  0  0  0
 33 34  1  0  0  0  0
 33 63  1  0  0  0  0
 34 35  1  0  0  0  0
 34 36  2  0  0  0  0
 36 37  1  0  0  0  0
 36 64  1  0  0  0  0
M  END
$$$$
