
 OpenBabel07202414183D

 32 34  0  0  0  0  0  0  0  0999 V2000
   -1.2681   -4.6547   -2.5762 Cl  0  0  0  0  0  0  0  0  0  0  0  0
    0.1886   -3.7328   -2.5704 C   0  0  0  0  0  0  0  0  0  0  0  0
    0.6871   -3.2214   -3.7645 C   0  0  0  0  0  0  0  0  0  0  0  0
    1.8521   -2.4547   -3.7465 C   0  0  0  0  0  0  0  0  0  0  0  0
    2.5187   -2.2078   -2.5393 C   0  0  0  0  0  0  0  0  0  0  0  0
    2.0373   -2.7424   -1.3359 C   0  0  0  0  0  0  0  0  0  0  0  0
    2.6641   -2.4540    0.0088 C   0  0  0  0  0  0  0  0  0  0  0  0
    4.1429   -2.1388    0.0243 C   0  0  0  0  0  0  0  0  0  0  0  0
    4.5491   -0.9878    0.1481 O   0  0  0  0  0  0  0  0  0  0  0  0
    4.9698   -3.2408   -0.1075 N   0  0  0  0  0  0  0  0  0  0  0  0
    6.3843   -3.0925   -0.0988 C   0  0  0  0  0  0  0  0  0  0  0  0
    7.0442   -2.3055    0.8400 C   0  0  0  0  0  0  0  0  0  0  0  0
    8.3771   -2.0972    0.8346 N   0  0  0  0  0  0  0  0  0  0  0  0
    9.0571   -2.6639   -0.1914 C   0  0  0  0  0  0  0  0  0  0  0  0
    8.5114   -3.4651   -1.1769 C   0  0  0  0  0  0  0  0  0  0  0  0
    9.2580   -3.9578   -2.1853 N   0  0  0  0  0  0  0  0  0  0  0  0
    8.6169   -4.6915   -3.1188 C   0  0  0  0  0  0  0  0  0  0  0  0
    7.2654   -4.9587   -3.0360 C   0  0  0  0  0  0  0  0  0  0  0  0
    6.4983   -4.4832   -2.0286 N   0  0  0  0  0  0  0  0  0  0  0  0
    7.1228   -3.7134   -1.1027 C   0  0  0  0  0  0  0  0  0  0  0  0
    0.8502   -3.4951   -1.3681 C   0  0  0  0  0  0  0  0  0  0  0  0
    0.1704   -3.4011   -4.7031 H   0  0  0  0  0  0  0  0  0  0  0  0
    2.2372   -2.0354   -4.6726 H   0  0  0  0  0  0  0  0  0  0  0  0
    3.4077   -1.5780   -2.5560 H   0  0  0  0  0  0  0  0  0  0  0  0
    2.5037   -3.3039    0.6844 H   0  0  0  0  0  0  0  0  0  0  0  0
    2.1445   -1.5952    0.4508 H   0  0  0  0  0  0  0  0  0  0  0  0
    4.6314   -3.9871   -0.7123 H   0  0  0  0  0  0  0  0  0  0  0  0
    6.5097   -1.8177    1.6494 H   0  0  0  0  0  0  0  0  0  0  0  0
   10.1243   -2.4404   -0.2063 H   0  0  0  0  0  0  0  0  0  0  0  0
    9.2196   -5.0570   -3.9431 H   0  0  0  0  0  0  0  0  0  0  0  0
    6.7571   -5.5553   -3.7849 H   0  0  0  0  0  0  0  0  0  0  0  0
    0.4289   -3.8843   -0.4438 H   0  0  0  0  0  0  0  0  0  0  0  0
  1  2  1  0  0  0  0
  2  3  1  0  0  0  0
  2 21  2  0  0  0  0
  3  4  2  0  0  0  0
  3 22  1  0  0  0  0
  4  5  1  0  0  0  0
  4 23  1  0  0  0  0
  5  6  2  0  0  0  0
  5 24  1  0  0  0  0
  6  7  1  0  0  0  0
  6 21  1  0  0  0  0
  7  8  1  0  0  0  0
  7 25  1  0  0  0  0
  7 26  1  0  0  0  0
  8  9  2  0  0  0  0
  8 10  1  0  0  0  0
 10 11  1  0  0  0  0
 10 27  1  0  0  0  0
 11 12  1  0  0  0  0
 11 20  2  0  0  0  0
 12 13  2  0  0  0  0
 12 28  1  0  0  0  0
 13 14  1  0  0  0  0
 14 15  2  0  0  0  0
 14 29  1  0  0  0  0
 15 16  1  0  0  0  0
 15 20  1  0  0  0  0
 16 17  2  0  0  0  0
 17 18  1  0  0  0  0
 17 30  1  0  0  0  0
 18 19  2  0  0  0  0
 18 31  1  0  0  0  0
 19 20  1  0  0  0  0
 21 32  1  0  0  0  0
M  END
$$$$
