
 OpenBabel07202414173D

 41 45  0  0  1  0  0  0  0  0999 V2000
    0.8968    0.2490   -0.0088 Cl  0  0  0  0  0  0  0  0  0  0  0  0
    2.6110    0.1126    0.0078 C   0  0  0  0  0  0  0  0  0  0  0  0
    3.3962    1.2596    0.0117 C   0  0  0  0  0  0  0  0  0  0  0  0
    4.7847    1.1393    0.0391 C   0  0  0  0  0  0  0  0  0  0  0  0
    5.3852   -0.1226    0.0869 C   0  0  0  0  0  0  0  0  0  0  0  0
    4.6067   -1.2867    0.0792 C   0  0  0  0  0  0  0  0  0  0  0  0
    3.2044   -1.1516    0.0320 C   0  0  0  0  0  0  0  0  0  0  0  0
    5.2709   -2.6348    0.2421 C   0  0  3  0  0  0  0  0  0  0  0  0
    6.7633   -2.5644   -0.0504 C   0  0  0  0  0  0  0  0  0  0  0  0
    7.3828   -1.3183    0.5444 C   0  0  0  0  0  0  0  0  0  0  0  0
    6.7510   -0.1163    0.1086 O   0  0  0  0  0  0  0  0  0  0  0  0
    4.7199   -3.6697   -0.5955 N   0  0  0  0  0  0  0  0  0  0  0  0
    4.1966   -4.7238    0.1157 C   0  0  0  0  0  0  0  0  0  0  0  0
    3.7641   -5.7185   -0.4347 O   0  0  0  0  0  0  0  0  0  0  0  0
    4.2191   -4.4179    1.4505 N   0  0  0  0  0  0  0  0  0  0  0  0
    3.1086   -4.8121    2.2544 C   0  0  0  0  0  0  0  0  0  0  0  0
    2.1702   -3.8384    2.6218 C   0  0  0  0  0  0  0  0  0  0  0  0
    0.9288   -4.1010    3.0891 N   0  0  0  0  0  0  0  0  0  0  0  0
    0.6314   -5.3991    3.2929 C   0  0  0  0  0  0  0  0  0  0  0  0
    1.5296   -6.4496    3.1195 C   0  0  0  0  0  0  0  0  0  0  0  0
    1.2012   -7.7538    3.5258 C   0  0  0  0  0  0  0  0  0  0  0  0
    2.1234   -8.7867    3.3885 C   0  0  0  0  0  0  0  0  0  0  0  0
    3.3478   -8.5431    2.7792 C   0  0  0  0  0  0  0  0  0  0  0  0
    3.6735   -7.2518    2.3449 C   0  0  0  0  0  0  0  0  0  0  0  0
    2.7934   -6.1636    2.5435 C   0  0  0  0  0  0  0  0  0  0  0  0
    4.8933   -3.2226    1.6292 C   0  0  0  0  0  0  0  0  0  0  0  0
    5.1147   -2.6704    2.7043 O   0  0  0  0  0  0  0  0  0  0  0  0
    2.9382    2.2450   -0.0024 H   0  0  0  0  0  0  0  0  0  0  0  0
    5.4038    2.0336    0.0437 H   0  0  0  0  0  0  0  0  0  0  0  0
    2.5621   -2.0292    0.0377 H   0  0  0  0  0  0  0  0  0  0  0  0
    6.9035   -2.5161   -1.1419 H   0  0  0  0  0  0  0  0  0  0  0  0
    7.2900   -3.4604    0.2953 H   0  0  0  0  0  0  0  0  0  0  0  0
    8.4254   -1.2568    0.2089 H   0  0  0  0  0  0  0  0  0  0  0  0
    7.3989   -1.3490    1.6383 H   0  0  0  0  0  0  0  0  0  0  0  0
    4.7798   -3.7075   -1.6036 H   0  0  0  0  0  0  0  0  0  0  0  0
    2.3596   -2.7769    2.4888 H   0  0  0  0  0  0  0  0  0  0  0  0
   -0.3875   -5.5782    3.6304 H   0  0  0  0  0  0  0  0  0  0  0  0
    0.2415   -7.9623    3.9952 H   0  0  0  0  0  0  0  0  0  0  0  0
    1.8879   -9.7789    3.7661 H   0  0  0  0  0  0  0  0  0  0  0  0
    4.0615   -9.3521    2.6532 H   0  0  0  0  0  0  0  0  0  0  0  0
    4.6419   -7.1004    1.8735 H   0  0  0  0  0  0  0  0  0  0  0  0
  1  2  1  0  0  0  0
  2  3  1  0  0  0  0
  2  7  2  0  0  0  0
  3  4  2  0  0  0  0
  3 28  1  0  0  0  0
  4  5  1  0  0  0  0
  4 29  1  0  0  0  0
  5  6  2  0  0  0  0
  5 11  1  0  0  0  0
  6  7  1  0  0  0  0
  6  8  1  0  0  0  0
  7 30  1  0  0  0  0
  8  9  1  0  0  0  0
  8 12  1  0  0  0  0
  8 26  1  0  0  0  0
  9 10  1  0  0  0  0
  9 31  1  0  0  0  0
  9 32  1  0  0  0  0
 10 11  1  0  0  0  0
 10 33  1  0  0  0  0
 10 34  1  0  0  0  0
 12 13  1  0  0  0  0
 12 35  1  0  0  0  0
 13 14  2  0  0  0  0
 13 15  1  0  0  0  0
 15 16  1  0  0  0  0
 15 26  1  0  0  0  0
 16 17  1  0  0  0  0
 16 25  2  0  0  0  0
 17 18  2  0  0  0  0
 17 36  1  0  0  0  0
 18 19  1  0  0  0  0
 19 20  2  0  0  0  0
 19 37  1  0  0  0  0
 20 21  1  0  0  0  0
 20 25  1  0  0  0  0
 21 22  2  0  0  0  0
 21 38  1  0  0  0  0
 22 23  1  0  0  0  0
 22 39  1  0  0  0  0
 23 24  2  0  0  0  0
 23 40  1  0  0  0  0
 24 25  1  0  0  0  0
 24 41  1  0  0  0  0
 26 27  2  0  0  0  0
M  END
$$$$
