
 OpenBabel07202414193D

 34 36  0  0  0  0  0  0  0  0999 V2000
    1.2798   -0.6012   -1.8969 F   0  0  0  0  0  0  0  0  0  0  0  0
    2.5900   -0.6009   -1.5884 C   0  0  0  0  0  0  0  0  0  0  0  0
    3.3999    0.3382   -2.2137 C   0  0  0  0  0  0  0  0  0  0  0  0
    4.7586    0.3740   -1.9310 C   0  0  0  0  0  0  0  0  0  0  0  0
    5.2945   -0.5275   -1.0130 C   0  0  0  0  0  0  0  0  0  0  0  0
    4.4804   -1.4958   -0.3882 C   0  0  0  0  0  0  0  0  0  0  0  0
    5.0014   -2.4303    0.5053 C   0  0  0  0  0  0  0  0  0  0  0  0
    4.2829   -3.4133    1.0887 N   0  0  0  0  0  0  0  0  0  0  0  0
    2.9745   -3.4875    0.7516 C   0  0  0  0  0  0  0  0  0  0  0  0
    2.3334   -2.5938   -0.1044 C   0  0  0  0  0  0  0  0  0  0  0  0
    0.9530   -2.7111   -0.4053 N   0  0  0  0  0  0  0  0  0  0  0  0
    0.3590   -3.9251   -0.7110 C   0  0  0  0  0  0  0  0  0  0  0  0
    0.9436   -5.0048   -0.7411 O   0  0  0  0  0  0  0  0  0  0  0  0
   -1.1160   -3.8072   -1.0594 C   0  0  0  0  0  0  0  0  0  0  0  0
   -1.3699   -3.2728   -2.4498 C   0  0  0  0  0  0  0  0  0  0  0  0
   -0.9065   -3.9643   -3.5793 C   0  0  0  0  0  0  0  0  0  0  0  0
   -1.1274   -3.4595   -4.8638 C   0  0  0  0  0  0  0  0  0  0  0  0
   -1.8206   -2.2620   -5.0352 C   0  0  0  0  0  0  0  0  0  0  0  0
   -2.3054   -1.5828   -3.9207 C   0  0  0  0  0  0  0  0  0  0  0  0
   -3.1741   -0.1115   -4.1284 Cl  0  0  0  0  0  0  0  0  0  0  0  0
   -2.0896   -2.0826   -2.6348 C   0  0  0  0  0  0  0  0  0  0  0  0
    3.0992   -1.5553   -0.6809 C   0  0  0  0  0  0  0  0  0  0  0  0
    2.9627    1.0268   -2.9321 H   0  0  0  0  0  0  0  0  0  0  0  0
    5.4016    1.0944   -2.4306 H   0  0  0  0  0  0  0  0  0  0  0  0
    6.3615   -0.4898   -0.7990 H   0  0  0  0  0  0  0  0  0  0  0  0
    6.0545   -2.4222    0.7818 H   0  0  0  0  0  0  0  0  0  0  0  0
    2.4350   -4.2994    1.2325 H   0  0  0  0  0  0  0  0  0  0  0  0
    0.5207   -1.8967   -0.8347 H   0  0  0  0  0  0  0  0  0  0  0  0
   -1.5938   -3.1704   -0.3048 H   0  0  0  0  0  0  0  0  0  0  0  0
   -1.5757   -4.7977   -0.9600 H   0  0  0  0  0  0  0  0  0  0  0  0
   -0.3653   -4.9036   -3.4666 H   0  0  0  0  0  0  0  0  0  0  0  0
   -0.7562   -4.0005   -5.7311 H   0  0  0  0  0  0  0  0  0  0  0  0
   -1.9814   -1.8682   -6.0353 H   0  0  0  0  0  0  0  0  0  0  0  0
   -2.4867   -1.5405   -1.7798 H   0  0  0  0  0  0  0  0  0  0  0  0
  1  2  1  0  0  0  0
  2  3  1  0  0  0  0
  2 22  2  0  0  0  0
  3  4  2  0  0  0  0
  3 23  1  0  0  0  0
  4  5  1  0  0  0  0
  4 24  1  0  0  0  0
  5  6  2  0  0  0  0
  5 25  1  0  0  0  0
  6  7  1  0  0  0  0
  6 22  1  0  0  0  0
  7  8  2  0  0  0  0
  7 26  1  0  0  0  0
  8  9  1  0  0  0  0
  9 10  2  0  0  0  0
  9 27  1  0  0  0  0
 10 11  1  0  0  0  0
 10 22  1  0  0  0  0
 11 12  1  0  0  0  0
 11 28  1  0  0  0  0
 12 13  2  0  0  0  0
 12 14  1  0  0  0  0
 14 15  1  0  0  0  0
 14 29  1  0  0  0  0
 14 30  1  0  0  0  0
 15 16  1  0  0  0  0
 15 21  2  0  0  0  0
 16 17  2  0  0  0  0
 16 31  1  0  0  0  0
 17 18  1  0  0  0  0
 17 32  1  0  0  0  0
 18 19  2  0  0  0  0
 18 33  1  0  0  0  0
 19 20  1  0  0  0  0
 19 21  1  0  0  0  0
 21 34  1  0  0  0  0
M  END
$$$$
