
 OpenBabel07202414183D

 40 43  0  0  1  0  0  0  0  0999 V2000
    3.2838    0.7402   -2.0007 F   0  0  0  0  0  0  0  0  0  0  0  0
    3.4141    0.3959   -0.7134 C   0  0  0  0  0  0  0  0  0  0  0  0
    3.1610    1.3355    0.2725 C   0  0  0  0  0  0  0  0  0  0  0  0
    3.2860    0.9639    1.6071 C   0  0  0  0  0  0  0  0  0  0  0  0
    3.6609   -0.3518    1.9498 C   0  0  0  0  0  0  0  0  0  0  0  0
    3.7578   -0.7236    3.2887 C   0  0  0  0  0  0  0  0  0  0  0  0
    4.0775   -1.9597    3.7092 N   0  0  0  0  0  0  0  0  0  0  0  0
    4.3753   -2.8683    2.7503 C   0  0  0  0  0  0  0  0  0  0  0  0
    4.3743   -2.6138    1.3757 C   0  0  0  0  0  0  0  0  0  0  0  0
    4.7878   -3.5886    0.4209 N   0  0  0  0  0  0  0  0  0  0  0  0
    5.5918   -4.6839    0.6958 C   0  0  0  0  0  0  0  0  0  0  0  0
    6.0018   -4.9848    1.8160 O   0  0  0  0  0  0  0  0  0  0  0  0
    5.9004   -5.6137   -0.4808 C   0  0  3  0  0  0  0  0  0  0  0  0
    4.7306   -6.6121   -0.5993 C   0  0  0  0  0  0  0  0  0  0  0  0
    4.2445   -6.9024   -2.0092 C   0  0  0  0  0  0  0  0  0  0  0  0
    5.3018   -6.8092   -3.0003 N   0  0  0  0  0  0  0  0  0  0  0  0
    5.9059   -5.5318   -2.9879 C   0  0  0  0  0  0  0  0  0  0  0  0
    6.2387   -4.9544   -4.2183 C   0  0  0  0  0  0  0  0  0  0  0  0
    7.0354   -3.8137   -4.2649 C   0  0  0  0  0  0  0  0  0  0  0  0
    7.3615   -3.1201   -5.8127 Cl  0  0  0  0  0  0  0  0  0  0  0  0
    7.5505   -3.2904   -3.0757 C   0  0  0  0  0  0  0  0  0  0  0  0
    8.6875   -1.9897   -3.0643 Cl  0  0  0  0  0  0  0  0  0  0  0  0
    7.1746   -3.8444   -1.8416 C   0  0  0  0  0  0  0  0  0  0  0  0
    6.3041   -4.9469   -1.7825 C   0  0  0  0  0  0  0  0  0  0  0  0
    3.9490   -1.3216    0.9527 C   0  0  0  0  0  0  0  0  0  0  0  0
    3.8033   -0.9042   -0.3949 C   0  0  0  0  0  0  0  0  0  0  0  0
    2.8700    2.3420   -0.0056 H   0  0  0  0  0  0  0  0  0  0  0  0
    3.0860    1.7077    2.3794 H   0  0  0  0  0  0  0  0  0  0  0  0
    3.5698   -0.0143    4.0929 H   0  0  0  0  0  0  0  0  0  0  0  0
    4.5994   -3.8481    3.1560 H   0  0  0  0  0  0  0  0  0  0  0  0
    4.6518   -3.3654   -0.5578 H   0  0  0  0  0  0  0  0  0  0  0  0
    6.7911   -6.1864   -0.1805 H   0  0  0  0  0  0  0  0  0  0  0  0
    3.8620   -6.2883   -0.0100 H   0  0  0  0  0  0  0  0  0  0  0  0
    5.0468   -7.5547   -0.1328 H   0  0  0  0  0  0  0  0  0  0  0  0
    3.4363   -6.2143   -2.2847 H   0  0  0  0  0  0  0  0  0  0  0  0
    3.8161   -7.9102   -2.0501 H   0  0  0  0  0  0  0  0  0  0  0  0
    6.0298   -7.5071   -2.8291 H   0  0  0  0  0  0  0  0  0  0  0  0
    5.8686   -5.4073   -5.1378 H   0  0  0  0  0  0  0  0  0  0  0  0
    7.6093   -3.4396   -0.9258 H   0  0  0  0  0  0  0  0  0  0  0  0
    3.9851   -1.5748   -1.2257 H   0  0  0  0  0  0  0  0  0  0  0  0
  1  2  1  0  0  0  0
  2  3  1  0  0  0  0
  2 26  2  0  0  0  0
  3  4  2  0  0  0  0
  3 27  1  0  0  0  0
  4  5  1  0  0  0  0
  4 28  1  0  0  0  0
  5  6  1  0  0  0  0
  5 25  2  0  0  0  0
  6  7  2  0  0  0  0
  6 29  1  0  0  0  0
  7  8  1  0  0  0  0
  8  9  2  0  0  0  0
  8 30  1  0  0  0  0
  9 10  1  0  0  0  0
  9 25  1  0  0  0  0
 10 11  1  0  0  0  0
 10 31  1  0  0  0  0
 11 12  2  0  0  0  0
 11 13  1  0  0  0  0
 13 14  1  0  0  0  0
 13 24  1  0  0  0  0
 13 32  1  0  0  0  0
 14 15  1  0  0  0  0
 14 33  1  0  0  0  0
 14 34  1  0  0  0  0
 15 16  1  0  0  0  0
 15 35  1  0  0  0  0
 15 36  1  0  0  0  0
 16 17  1  0  0  0  0
 16 37  1  0  0  0  0
 17 18  1  0  0  0  0
 17 24  2  0  0  0  0
 18 19  2  0  0  0  0
 18 38  1  0  0  0  0
 19 20  1  0  0  0  0
 19 21  1  0  0  0  0
 21 22  1  0  0  0  0
 21 23  2  0  0  0  0
 23 24  1  0  0  0  0
 23 39  1  0  0  0  0
 25 26  1  0  0  0  0
 26 40  1  0  0  0  0
M  END
$$$$
