
 OpenBabel07202414143D

 83 86  0  0  1  0  0  0  0  0999 V2000
    6.6860    0.7963   -2.9493 C   0  0  0  0  0  0  0  0  0  0  0  0
    5.8449    0.2453   -1.9340 O   0  0  0  0  0  0  0  0  0  0  0  0
    5.4995   -1.0608   -2.1088 C   0  0  0  0  0  0  0  0  0  0  0  0
    5.8340   -1.7439   -3.0693 O   0  0  0  0  0  0  0  0  0  0  0  0
    4.6582   -1.6029   -0.9313 C   0  0  1  0  0  0  0  0  0  0  0  0
    5.3945   -2.7606   -0.2388 C   0  0  0  0  0  0  0  0  0  0  0  0
    6.3521   -2.0402    0.7207 C   0  0  2  0  0  0  0  0  0  0  0  0
    6.7933   -2.8334    1.8617 N   0  0  0  0  0  0  0  0  0  0  0  0
    7.7065   -2.2701    2.7354 C   0  0  0  0  0  0  0  0  0  0  0  0
    8.0576   -1.0932    2.6106 O   0  0  0  0  0  0  0  0  0  0  0  0
    8.3763   -3.1764    3.7965 C   0  0  3  0  0  0  0  0  0  0  0  0
    7.4140   -3.8010    4.7673 N   0  0  0  0  0  0  0  0  0  0  0  0
    6.8158   -5.0800    4.6977 C   0  0  0  0  0  0  0  0  0  0  0  0
    6.0973   -5.5244    5.5964 O   0  0  0  0  0  0  0  0  0  0  0  0
    7.0489   -5.9554    3.5560 C   0  0  0  0  0  0  0  0  0  0  0  0
    7.0040   -7.3332    3.6351 C   0  0  0  0  0  0  0  0  0  0  0  0
    7.3195   -7.8452    2.4179 O   0  0  0  0  0  0  0  0  0  0  0  0
    7.4992   -6.7424    1.6430 C   0  0  0  0  0  0  0  0  0  0  0  0
    7.2827   -5.5889    2.2436 N   0  0  0  0  0  0  0  0  0  0  0  0
    7.0760   -2.9956    5.9259 C   0  0  0  0  0  0  0  0  0  0  0  0
    7.1424   -3.5495    7.2087 C   0  0  0  0  0  0  0  0  0  0  0  0
    6.7107   -2.8419    8.3390 C   0  0  0  0  0  0  0  0  0  0  0  0
    6.1960   -1.5423    8.2414 C   0  0  0  0  0  0  0  0  0  0  0  0
    5.7014   -0.7624    9.4772 C   0  0  0  0  0  0  0  0  0  0  0  0
    5.8638   -1.5488   10.8012 C   0  0  0  0  0  0  0  0  0  0  0  0
    6.5057    0.5464    9.6217 C   0  0  0  0  0  0  0  0  0  0  0  0
    4.2028   -0.4091    9.3527 C   0  0  0  0  0  0  0  0  0  0  0  0
    6.1664   -0.9754    6.9527 C   0  0  0  0  0  0  0  0  0  0  0  0
    6.6145   -1.6806    5.8151 C   0  0  0  0  0  0  0  0  0  0  0  0
    9.4845   -4.0700    3.2291 C   0  0  0  0  0  0  0  0  0  0  0  0
   10.2043   -4.9599    4.0372 C   0  0  0  0  0  0  0  0  0  0  0  0
   11.1460   -5.8190    3.4658 C   0  0  0  0  0  0  0  0  0  0  0  0
   11.3647   -5.7503    2.1010 C   0  0  0  0  0  0  0  0  0  0  0  0
   10.7425   -4.8717    1.2940 N   0  0  0  0  0  0  0  0  0  0  0  0
    9.8427   -4.0428    1.8756 C   0  0  0  0  0  0  0  0  0  0  0  0
    5.5614   -0.7902    1.1388 C   0  0  0  0  0  0  0  0  0  0  0  0
    4.5042   -0.6495    0.1608 N   0  0  0  0  0  0  0  0  0  0  0  0
    3.5420    0.3070    0.3386 C   0  0  0  0  0  0  0  0  0  0  0  0
    3.5653    1.0667    1.3046 O   0  0  0  0  0  0  0  0  0  0  0  0
    2.5618    0.2916   -0.6073 O   0  0  0  0  0  0  0  0  0  0  0  0
    1.4082    1.1646   -0.4119 C   0  0  0  0  0  0  0  0  0  0  0  0
    1.8045    2.6495   -0.4276 C   0  0  0  0  0  0  0  0  0  0  0  0
    0.4633    0.9202   -1.6015 C   0  0  0  0  0  0  0  0  0  0  0  0
    0.6458    0.7868    0.8691 C   0  0  0  0  0  0  0  0  0  0  0  0
    6.9918    1.7963   -2.6272 H   0  0  0  0  0  0  0  0  0  0  0  0
    6.1362    0.8876   -3.8905 H   0  0  0  0  0  0  0  0  0  0  0  0
    7.5875    0.1897   -3.0814 H   0  0  0  0  0  0  0  0  0  0  0  0
    3.6809   -1.8936   -1.3290 H   0  0  0  0  0  0  0  0  0  0  0  0
    5.9290   -3.4219   -0.9287 H   0  0  0  0  0  0  0  0  0  0  0  0
    4.6802   -3.3710    0.3279 H   0  0  0  0  0  0  0  0  0  0  0  0
    7.2493   -1.7330    0.1664 H   0  0  0  0  0  0  0  0  0  0  0  0
    6.7767   -3.8544    1.8053 H   0  0  0  0  0  0  0  0  0  0  0  0
    8.9558   -2.4636    4.4076 H   0  0  0  0  0  0  0  0  0  0  0  0
    6.8081   -8.0388    4.4312 H   0  0  0  0  0  0  0  0  0  0  0  0
    7.8019   -6.9202    0.6205 H   0  0  0  0  0  0  0  0  0  0  0  0
    7.5250   -4.5565    7.3583 H   0  0  0  0  0  0  0  0  0  0  0  0
    6.7786   -3.3572    9.2928 H   0  0  0  0  0  0  0  0  0  0  0  0
    6.9119   -1.8103   10.9883 H   0  0  0  0  0  0  0  0  0  0  0  0
    5.2772   -2.4757   10.7918 H   0  0  0  0  0  0  0  0  0  0  0  0
    5.5200   -0.9618   11.6608 H   0  0  0  0  0  0  0  0  0  0  0  0
    7.5789    0.3426    9.7092 H   0  0  0  0  0  0  0  0  0  0  0  0
    6.1980    1.1022   10.5157 H   0  0  0  0  0  0  0  0  0  0  0  0
    6.3627    1.2141    8.7652 H   0  0  0  0  0  0  0  0  0  0  0  0
    3.5831   -1.3110    9.2894 H   0  0  0  0  0  0  0  0  0  0  0  0
    3.9906    0.2045    8.4712 H   0  0  0  0  0  0  0  0  0  0  0  0
    3.8633    0.1595   10.2287 H   0  0  0  0  0  0  0  0  0  0  0  0
    5.7714    0.0291    6.8052 H   0  0  0  0  0  0  0  0  0  0  0  0
    6.5150   -1.1893    4.8517 H   0  0  0  0  0  0  0  0  0  0  0  0
   10.0251   -5.0077    5.1086 H   0  0  0  0  0  0  0  0  0  0  0  0
   11.6907   -6.5350    4.0706 H   0  0  0  0  0  0  0  0  0  0  0  0
   12.0664   -6.4162    1.6065 H   0  0  0  0  0  0  0  0  0  0  0  0
    9.3876   -3.3573    1.1652 H   0  0  0  0  0  0  0  0  0  0  0  0
    6.1855    0.1102    1.1152 H   0  0  0  0  0  0  0  0  0  0  0  0
    5.1129   -0.8802    2.1350 H   0  0  0  0  0  0  0  0  0  0  0  0
    2.3323    2.8992   -1.3548 H   0  0  0  0  0  0  0  0  0  0  0  0
    2.4760    2.9175    0.3918 H   0  0  0  0  0  0  0  0  0  0  0  0
    0.9242    3.2965   -0.3444 H   0  0  0  0  0  0  0  0  0  0  0  0
    0.9478    1.1738   -2.5506 H   0  0  0  0  0  0  0  0  0  0  0  0
   -0.4507    1.5205   -1.5143 H   0  0  0  0  0  0  0  0  0  0  0  0
    0.1741   -0.1344   -1.6662 H   0  0  0  0  0  0  0  0  0  0  0  0
    1.2391    0.9465    1.7733 H   0  0  0  0  0  0  0  0  0  0  0  0
    0.3782   -0.2761    0.8578 H   0  0  0  0  0  0  0  0  0  0  0  0
   -0.2721    1.3746    0.9767 H   0  0  0  0  0  0  0  0  0  0  0  0
  1  2  1  0  0  0  0
  1 45  1  0  0  0  0
  1 46  1  0  0  0  0
  1 47  1  0  0  0  0
  2  3  1  0  0  0  0
  3  4  2  0  0  0  0
  5  6  1  0  0  0  0
  5 37  1  0  0  0  0
  5  3  1  0  0  0  0
  5 48  1  6  0  0  0
  6  7  1  0  0  0  0
  6 49  1  0  0  0  0
  6 50  1  0  0  0  0
  7 36  1  0  0  0  0
  7  8  1  0  0  0  0
  7 51  1  6  0  0  0
  8  9  1  0  0  0  0
  8 52  1  0  0  0  0
  9 10  2  0  0  0  0
  9 11  1  0  0  0  0
 11 12  1  0  0  0  0
 11 30  1  0  0  0  0
 11 53  1  0  0  0  0
 12 13  1  0  0  0  0
 12 20  1  0  0  0  0
 13 14  2  0  0  0  0
 13 15  1  0  0  0  0
 15 16  2  0  0  0  0
 15 19  1  0  0  0  0
 16 17  1  0  0  0  0
 16 54  1  0  0  0  0
 17 18  1  0  0  0  0
 18 19  2  0  0  0  0
 18 55  1  0  0  0  0
 20 21  1  0  0  0  0
 20 29  2  0  0  0  0
 21 22  2  0  0  0  0
 21 56  1  0  0  0  0
 22 23  1  0  0  0  0
 22 57  1  0  0  0  0
 23 24  1  0  0  0  0
 23 28  2  0  0  0  0
 24 25  1  0  0  0  0
 24 26  1  0  0  0  0
 24 27  1  0  0  0  0
 25 58  1  0  0  0  0
 25 59  1  0  0  0  0
 25 60  1  0  0  0  0
 26 61  1  0  0  0  0
 26 62  1  0  0  0  0
 26 63  1  0  0  0  0
 27 64  1  0  0  0  0
 27 65  1  0  0  0  0
 27 66  1  0  0  0  0
 28 29  1  0  0  0  0
 28 67  1  0  0  0  0
 29 68  1  0  0  0  0
 30 31  1  0  0  0  0
 30 35  2  0  0  0  0
 31 32  2  0  0  0  0
 31 69  1  0  0  0  0
 32 33  1  0  0  0  0
 32 70  1  0  0  0  0
 33 34  2  0  0  0  0
 33 71  1  0  0  0  0
 34 35  1  0  0  0  0
 35 72  1  0  0  0  0
 36 37  1  0  0  0  0
 36 73  1  0  0  0  0
 36 74  1  0  0  0  0
 37 38  1  0  0  0  0
 38 39  2  0  0  0  0
 38 40  1  0  0  0  0
 40 41  1  0  0  0  0
 41 42  1  0  0  0  0
 41 43  1  0  0  0  0
 41 44  1  0  0  0  0
 42 75  1  0  0  0  0
 42 76  1  0  0  0  0
 42 77  1  0  0  0  0
 43 78  1  0  0  0  0
 43 79  1  0  0  0  0
 43 80  1  0  0  0  0
 44 81  1  0  0  0  0
 44 82  1  0  0  0  0
 44 83  1  0  0  0  0
M  END
$$$$
