
 OpenBabel07202414123D

 63 65  0  0  1  0  0  0  0  0999 V2000
    3.1339   -0.9462    1.0494 C   0  0  0  0  0  0  0  0  0  0  0  0
    2.3810   -0.4988   -0.2084 C   0  0  0  0  0  0  0  0  0  0  0  0
    0.9031   -0.3031    0.1534 C   0  0  0  0  0  0  0  0  0  0  0  0
    2.9374    0.8033   -0.8310 C   0  0  0  0  0  0  0  0  0  0  0  0
    4.4413    0.7879   -1.1810 C   0  0  2  0  0  0  0  0  0  0  0  0
    4.9550    2.2051   -1.5554 C   0  0  0  0  0  0  0  0  0  0  0  0
    6.4211    2.2004   -1.6637 N   0  0  0  0  0  0  0  0  0  0  0  0
    7.1556    3.0275   -0.8299 C   0  0  0  0  0  0  0  0  0  0  0  0
    6.6289    3.7120    0.0503 O   0  0  0  0  0  0  0  0  0  0  0  0
    8.6707    3.1002   -1.0267 C   0  0  0  0  0  0  0  0  0  0  0  0
    9.0490    3.8143   -2.1853 O   0  0  0  0  0  0  0  0  0  0  0  0
    8.8021    5.4235   -2.1548 S   0  0  0  0  0  0  0  0  0  0  0  0
    7.3815    5.6657   -2.2285 O   0  0  0  0  0  0  0  0  0  0  0  0
    9.6094    5.9743   -1.0891 O   0  0  0  0  0  0  0  0  0  0  0  0
    9.4564    5.9587   -3.6236 N   0  0  0  0  0  0  0  0  0  0  0  0
   10.9164    5.7426   -3.8343 C   0  0  0  0  0  0  0  0  0  0  0  0
   11.7602    6.8437   -3.1794 C   0  0  0  0  0  0  0  0  0  0  0  0
   11.3570    8.1460   -3.6268 O   0  0  0  0  0  0  0  0  0  0  0  0
    9.9766    8.3853   -3.3140 C   0  0  0  0  0  0  0  0  0  0  0  0
    9.0759    7.3555   -4.0026 C   0  0  0  0  0  0  0  0  0  0  0  0
    6.9686    1.1573   -2.5400 C   0  0  0  0  0  0  0  0  0  0  0  0
    6.3650   -0.2244   -2.1942 C   0  0  0  0  0  0  0  0  0  0  0  0
    4.8763   -0.2552   -2.1631 N   0  0  0  0  0  0  0  0  0  0  0  0
    4.2979   -0.0776   -3.5169 C   0  0  0  0  0  0  0  0  0  0  0  0
    4.7893   -1.1197   -4.5100 C   0  0  0  0  0  0  0  0  0  0  0  0
    4.5322   -2.4815   -4.2933 C   0  0  0  0  0  0  0  0  0  0  0  0
    5.0949   -3.4527   -5.1243 C   0  0  0  0  0  0  0  0  0  0  0  0
    5.9094   -3.0741   -6.1910 C   0  0  0  0  0  0  0  0  0  0  0  0
    6.1373   -1.7217   -6.4387 C   0  0  0  0  0  0  0  0  0  0  0  0
    7.1444   -1.2549   -7.7532 Cl  0  0  0  0  0  0  0  0  0  0  0  0
    5.5789   -0.7471   -5.6120 C   0  0  0  0  0  0  0  0  0  0  0  0
    2.7085   -1.8778    1.4397 H   0  0  0  0  0  0  0  0  0  0  0  0
    3.0691   -0.1925    1.8420 H   0  0  0  0  0  0  0  0  0  0  0  0
    4.1903   -1.1430    0.8485 H   0  0  0  0  0  0  0  0  0  0  0  0
    2.4467   -1.3022   -0.9516 H   0  0  0  0  0  0  0  0  0  0  0  0
    0.7815    0.4817    0.9095 H   0  0  0  0  0  0  0  0  0  0  0  0
    0.4746   -1.2255    0.5603 H   0  0  0  0  0  0  0  0  0  0  0  0
    0.3166   -0.0189   -0.7257 H   0  0  0  0  0  0  0  0  0  0  0  0
    2.7660    1.6185   -0.1138 H   0  0  0  0  0  0  0  0  0  0  0  0
    2.3481    1.0615   -1.7194 H   0  0  0  0  0  0  0  0  0  0  0  0
    4.9509    0.5463   -0.2387 H   0  0  0  0  0  0  0  0  0  0  0  0
    4.6221    2.9337   -0.8094 H   0  0  0  0  0  0  0  0  0  0  0  0
    4.5515    2.5412   -2.5170 H   0  0  0  0  0  0  0  0  0  0  0  0
    9.0970    2.0943   -1.0643 H   0  0  0  0  0  0  0  0  0  0  0  0
    9.1128    3.5599   -0.1349 H   0  0  0  0  0  0  0  0  0  0  0  0
   11.0845    5.7592   -4.9191 H   0  0  0  0  0  0  0  0  0  0  0  0
   11.2180    4.7512   -3.4831 H   0  0  0  0  0  0  0  0  0  0  0  0
   12.8103    6.7127   -3.4601 H   0  0  0  0  0  0  0  0  0  0  0  0
   11.7148    6.8106   -2.0869 H   0  0  0  0  0  0  0  0  0  0  0  0
    9.7286    9.3886   -3.6747 H   0  0  0  0  0  0  0  0  0  0  0  0
    9.8456    8.3855   -2.2265 H   0  0  0  0  0  0  0  0  0  0  0  0
    9.1886    7.4358   -5.0908 H   0  0  0  0  0  0  0  0  0  0  0  0
    8.0221    7.5521   -3.7823 H   0  0  0  0  0  0  0  0  0  0  0  0
    8.0541    1.0901   -2.4657 H   0  0  0  0  0  0  0  0  0  0  0  0
    6.7355    1.4404   -3.5716 H   0  0  0  0  0  0  0  0  0  0  0  0
    6.7199   -0.5229   -1.1979 H   0  0  0  0  0  0  0  0  0  0  0  0
    6.7696   -0.9890   -2.8654 H   0  0  0  0  0  0  0  0  0  0  0  0
    4.5102    0.9168   -3.9257 H   0  0  0  0  0  0  0  0  0  0  0  0
    3.2056   -0.1623   -3.4764 H   0  0  0  0  0  0  0  0  0  0  0  0
    3.9223   -2.7870   -3.4449 H   0  0  0  0  0  0  0  0  0  0  0  0
    4.9151   -4.5064   -4.9240 H   0  0  0  0  0  0  0  0  0  0  0  0
    6.3707   -3.8361   -6.8154 H   0  0  0  0  0  0  0  0  0  0  0  0
    5.7848    0.3021   -5.8111 H   0  0  0  0  0  0  0  0  0  0  0  0
  1  2  1  0  0  0  0
  1 32  1  0  0  0  0
  1 33  1  0  0  0  0
  1 34  1  0  0  0  0
  2  3  1  0  0  0  0
  2  4  1  0  0  0  0
  2 35  1  0  0  0  0
  3 36  1  0  0  0  0
  3 37  1  0  0  0  0
  3 38  1  0  0  0  0
  4  5  1  0  0  0  0
  4 39  1  0  0  0  0
  4 40  1  0  0  0  0
  5  6  1  0  0  0  0
  5 23  1  0  0  0  0
  5 41  1  1  0  0  0
  6  7  1  0  0  0  0
  6 42  1  0  0  0  0
  6 43  1  0  0  0  0
  7  8  1  0  0  0  0
  7 21  1  0  0  0  0
  8  9  2  0  0  0  0
  8 10  1  0  0  0  0
 10 11  1  0  0  0  0
 10 44  1  0  0  0  0
 10 45  1  0  0  0  0
 11 12  1  0  0  0  0
 12 13  2  0  0  0  0
 12 14  2  0  0  0  0
 12 15  1  0  0  0  0
 15 16  1  0  0  0  0
 15 20  1  0  0  0  0
 16 17  1  0  0  0  0
 16 46  1  0  0  0  0
 16 47  1  0  0  0  0
 17 18  1  0  0  0  0
 17 48  1  0  0  0  0
 17 49  1  0  0  0  0
 18 19  1  0  0  0  0
 19 20  1  0  0  0  0
 19 50  1  0  0  0  0
 19 51  1  0  0  0  0
 20 52  1  0  0  0  0
 20 53  1  0  0  0  0
 21 22  1  0  0  0  0
 21 54  1  0  0  0  0
 21 55  1  0  0  0  0
 22 23  1  0  0  0  0
 22 56  1  0  0  0  0
 22 57  1  0  0  0  0
 23 24  1  0  0  0  0
 24 25  1  0  0  0  0
 24 58  1  0  0  0  0
 24 59  1  0  0  0  0
 25 26  1  0  0  0  0
 25 31  2  0  0  0  0
 26 27  2  0  0  0  0
 26 60  1  0  0  0  0
 27 28  1  0  0  0  0
 27 61  1  0  0  0  0
 28 29  2  0  0  0  0
 28 62  1  0  0  0  0
 29 30  1  0  0  0  0
 29 31  1  0  0  0  0
 31 63  1  0  0  0  0
M  END
$$$$
