
 OpenBabel07202414123D

 62 65  0  0  1  0  0  0  0  0999 V2000
    3.2305   -1.5959    8.3568 C   0  0  0  0  0  0  0  0  0  0  0  0
    3.5628   -1.2148    6.9023 C   0  0  0  0  0  0  0  0  0  0  0  0
    3.0756    0.2235    6.6287 C   0  0  0  0  0  0  0  0  0  0  0  0
    5.0981   -1.2171    6.7656 C   0  0  0  0  0  0  0  0  0  0  0  0
    2.8927   -2.1624    5.9299 C   0  0  0  0  0  0  0  0  0  0  0  0
    1.6051   -2.6039    5.7227 C   0  0  0  0  0  0  0  0  0  0  0  0
    1.5343   -3.3633    4.5720 N   0  0  0  0  0  0  0  0  0  0  0  0
    2.7595   -3.3595    4.0875 C   0  0  0  0  0  0  0  0  0  0  0  0
    3.2120   -3.8797    2.8591 N   0  0  0  0  0  0  0  0  0  0  0  0
    2.3879   -4.8728    2.0702 C   0  0  3  0  0  0  0  0  0  0  0  0
    1.1132   -5.4258    2.8016 C   0  0  0  0  0  0  0  0  0  0  0  0
    1.1378   -6.4368    3.5007 O   0  0  0  0  0  0  0  0  0  0  0  0
   -0.0398   -4.6820    2.5823 N   0  0  0  0  0  0  0  0  0  0  0  0
   -1.2959   -5.0170    3.2196 C   0  0  0  0  0  0  0  0  0  0  0  0
   -2.4017   -4.0561    2.7807 C   0  0  0  0  0  0  0  0  0  0  0  0
   -3.7251   -4.3494    3.4362 C   0  0  0  0  0  0  0  0  0  0  0  0
   -4.6490   -5.2126    2.8285 C   0  0  0  0  0  0  0  0  0  0  0  0
   -5.8833   -5.4703    3.4315 C   0  0  0  0  0  0  0  0  0  0  0  0
   -6.2022   -4.8715    4.6489 C   0  0  0  0  0  0  0  0  0  0  0  0
   -5.2812   -4.0277    5.2572 C   0  0  0  0  0  0  0  0  0  0  0  0
   -5.5853   -3.4538    6.4289 F   0  0  0  0  0  0  0  0  0  0  0  0
   -4.0492   -3.7651    4.6674 C   0  0  0  0  0  0  0  0  0  0  0  0
    1.9703   -4.4893    0.6377 C   0  0  0  0  0  0  0  0  0  0  0  0
    1.3595   -5.4433   -0.2213 C   0  0  0  0  0  0  0  0  0  0  0  0
    1.0005   -5.0976   -1.5253 C   0  0  0  0  0  0  0  0  0  0  0  0
    1.2814   -3.8122   -1.9517 C   0  0  0  0  0  0  0  0  0  0  0  0
    1.7924   -2.8601   -1.1479 N   0  0  0  0  0  0  0  0  0  0  0  0
    2.0935   -3.2119    0.1220 C   0  0  0  0  0  0  0  0  0  0  0  0
    4.4833   -3.3883    2.4665 C   0  0  0  0  0  0  0  0  0  0  0  0
    5.1021   -2.5132    3.0691 O   0  0  0  0  0  0  0  0  0  0  0  0
    5.0869   -3.8099    1.2003 C   0  0  0  0  0  0  0  0  0  0  0  0
    5.9412   -2.9858    0.4905 C   0  0  0  0  0  0  0  0  0  0  0  0
    6.3434   -3.6414   -0.6253 O   0  0  0  0  0  0  0  0  0  0  0  0
    5.7159   -4.8445   -0.5310 C   0  0  0  0  0  0  0  0  0  0  0  0
    4.9560   -5.0048    0.5359 N   0  0  0  0  0  0  0  0  0  0  0  0
    3.6381   -2.6964    4.9161 O   0  0  0  0  0  0  0  0  0  0  0  0
    3.6756   -0.8818    9.0621 H   0  0  0  0  0  0  0  0  0  0  0  0
    3.6262   -2.5878    8.6053 H   0  0  0  0  0  0  0  0  0  0  0  0
    2.1517   -1.6115    8.5443 H   0  0  0  0  0  0  0  0  0  0  0  0
    3.5436    0.9395    7.3159 H   0  0  0  0  0  0  0  0  0  0  0  0
    1.9901    0.3175    6.7448 H   0  0  0  0  0  0  0  0  0  0  0  0
    3.3269    0.5384    5.6084 H   0  0  0  0  0  0  0  0  0  0  0  0
    5.5524   -0.5001    7.4625 H   0  0  0  0  0  0  0  0  0  0  0  0
    5.4170   -0.9334    5.7566 H   0  0  0  0  0  0  0  0  0  0  0  0
    5.5199   -2.2031    6.9889 H   0  0  0  0  0  0  0  0  0  0  0  0
    0.7247   -2.3803    6.3087 H   0  0  0  0  0  0  0  0  0  0  0  0
    3.0420   -5.7504    1.9602 H   0  0  0  0  0  0  0  0  0  0  0  0
    0.1119   -3.7052    2.3596 H   0  0  0  0  0  0  0  0  0  0  0  0
   -1.1414   -4.9755    4.3028 H   0  0  0  0  0  0  0  0  0  0  0  0
   -1.5455   -6.0520    2.9577 H   0  0  0  0  0  0  0  0  0  0  0  0
   -2.5183   -4.0819    1.6888 H   0  0  0  0  0  0  0  0  0  0  0  0
   -2.1080   -3.0229    3.0113 H   0  0  0  0  0  0  0  0  0  0  0  0
   -4.4157   -5.6856    1.8763 H   0  0  0  0  0  0  0  0  0  0  0  0
   -6.5956   -6.1355    2.9499 H   0  0  0  0  0  0  0  0  0  0  0  0
   -7.1587   -5.0569    5.1264 H   0  0  0  0  0  0  0  0  0  0  0  0
   -3.3559   -3.0995    5.1732 H   0  0  0  0  0  0  0  0  0  0  0  0
    1.1323   -6.4512    0.1268 H   0  0  0  0  0  0  0  0  0  0  0  0
    0.5203   -5.8041   -2.1905 H   0  0  0  0  0  0  0  0  0  0  0  0
    1.0915   -3.5035   -2.9774 H   0  0  0  0  0  0  0  0  0  0  0  0
    2.4585   -2.3857    0.7313 H   0  0  0  0  0  0  0  0  0  0  0  0
    6.3152   -1.9802    0.6347 H   0  0  0  0  0  0  0  0  0  0  0  0
    5.9051   -5.5403   -1.3343 H   0  0  0  0  0  0  0  0  0  0  0  0
  1  2  1  0  0  0  0
  1 37  1  0  0  0  0
  1 38  1  0  0  0  0
  1 39  1  0  0  0  0
  2  3  1  0  0  0  0
  2  4  1  0  0  0  0
  2  5  1  0  0  0  0
  3 40  1  0  0  0  0
  3 41  1  0  0  0  0
  3 42  1  0  0  0  0
  4 43  1  0  0  0  0
  4 44  1  0  0  0  0
  4 45  1  0  0  0  0
  5  6  2  0  0  0  0
  5 36  1  0  0  0  0
  6  7  1  0  0  0  0
  6 46  1  0  0  0  0
  7  8  2  0  0  0  0
  8  9  1  0  0  0  0
  8 36  1  0  0  0  0
  9 10  1  0  0  0  0
  9 29  1  0  0  0  0
 10 11  1  0  0  0  0
 10 23  1  0  0  0  0
 10 47  1  0  0  0  0
 11 12  2  0  0  0  0
 11 13  1  0  0  0  0
 13 14  1  0  0  0  0
 13 48  1  0  0  0  0
 14 15  1  0  0  0  0
 14 49  1  0  0  0  0
 14 50  1  0  0  0  0
 15 16  1  0  0  0  0
 15 51  1  0  0  0  0
 15 52  1  0  0  0  0
 16 17  1  0  0  0  0
 16 22  2  0  0  0  0
 17 18  2  0  0  0  0
 17 53  1  0  0  0  0
 18 19  1  0  0  0  0
 18 54  1  0  0  0  0
 19 20  2  0  0  0  0
 19 55  1  0  0  0  0
 20 21  1  0  0  0  0
 20 22  1  0  0  0  0
 22 56  1  0  0  0  0
 23 24  1  0  0  0  0
 23 28  2  0  0  0  0
 24 25  2  0  0  0  0
 24 57  1  0  0  0  0
 25 26  1  0  0  0  0
 25 58  1  0  0  0  0
 26 27  2  0  0  0  0
 26 59  1  0  0  0  0
 27 28  1  0  0  0  0
 28 60  1  0  0  0  0
 29 30  2  0  0  0  0
 29 31  1  0  0  0  0
 31 32  2  0  0  0  0
 31 35  1  0  0  0  0
 32 33  1  0  0  0  0
 32 61  1  0  0  0  0
 33 34  1  0  0  0  0
 34 35  2  0  0  0  0
 34 62  1  0  0  0  0
M  END
$$$$
