
 OpenBabel07202414133D

 56 59  0  0  1  0  0  0  0  0999 V2000
    8.2070   -2.4121   -0.5363 C   0  0  0  0  0  0  0  0  0  0  0  0
    8.0005   -1.1367    0.1277 N   0  0  0  0  0  0  0  0  0  0  0  0
    9.1102   -0.5444    0.8554 C   0  0  0  0  0  0  0  0  0  0  0  0
    6.7520   -0.5458   -0.0076 C   0  0  0  0  0  0  0  0  0  0  0  0
    5.8343   -1.0985   -0.6209 O   0  0  0  0  0  0  0  0  0  0  0  0
    6.5408    0.8749    0.5385 C   0  0  0  0  0  0  0  0  0  0  0  0
    6.9748    1.9105   -0.3302 O   0  0  0  0  0  0  0  0  0  0  0  0
    6.3576    1.8717   -1.6216 C   0  0  0  0  0  0  0  0  0  0  0  0
    6.9856    2.8792   -2.6051 C   0  0  3  0  0  0  0  0  0  0  0  0
    6.3297    2.8080   -4.0105 C   0  0  0  0  0  0  0  0  0  0  0  0
    6.5865    3.6653   -4.8678 O   0  0  0  0  0  0  0  0  0  0  0  0
    5.3740    1.9061   -4.3928 N   0  0  0  0  0  0  0  0  0  0  0  0
    5.4419    0.4789   -4.3972 C   0  0  0  0  0  0  0  0  0  0  0  0
    4.5141   -0.2025   -3.6106 C   0  0  0  0  0  0  0  0  0  0  0  0
    3.9816   -1.4017   -3.9332 N   0  0  0  0  0  0  0  0  0  0  0  0
    4.5118   -2.0276   -4.9950 C   0  0  0  0  0  0  0  0  0  0  0  0
    5.6469   -1.5956   -5.6579 C   0  0  0  0  0  0  0  0  0  0  0  0
    6.3441   -2.4498   -6.5239 C   0  0  0  0  0  0  0  0  0  0  0  0
    7.4573   -1.9785   -7.2246 C   0  0  0  0  0  0  0  0  0  0  0  0
    7.7590   -0.6168   -7.1854 C   0  0  0  0  0  0  0  0  0  0  0  0
    7.0442    0.2381   -6.3324 C   0  0  0  0  0  0  0  0  0  0  0  0
    6.0534   -0.2545   -5.4513 C   0  0  0  0  0  0  0  0  0  0  0  0
    8.4846    2.5971   -2.8432 C   0  0  0  0  0  0  0  0  0  0  0  0
    9.3385    2.9497   -1.6397 C   0  0  0  0  0  0  0  0  0  0  0  0
    9.2422    4.3195   -1.2578 O   0  0  0  0  0  0  0  0  0  0  0  0
    7.9701    4.8558   -1.3103 C   0  0  0  0  0  0  0  0  0  0  0  0
    7.8641    6.0904   -0.6654 C   0  0  0  0  0  0  0  0  0  0  0  0
    6.6630    6.7936   -0.6904 C   0  0  0  0  0  0  0  0  0  0  0  0
    5.5736    6.2602   -1.3746 C   0  0  0  0  0  0  0  0  0  0  0  0
    4.0914    7.1365   -1.4175 Cl  0  0  0  0  0  0  0  0  0  0  0  0
    5.6755    5.0182   -2.0185 C   0  0  0  0  0  0  0  0  0  0  0  0
    6.8813    4.2841   -1.9822 C   0  0  0  0  0  0  0  0  0  0  0  0
    9.1845   -2.8367   -0.2959 H   0  0  0  0  0  0  0  0  0  0  0  0
    8.1293   -2.2652   -1.6187 H   0  0  0  0  0  0  0  0  0  0  0  0
    7.4249   -3.1089   -0.2197 H   0  0  0  0  0  0  0  0  0  0  0  0
    9.9695   -1.2201    0.8813 H   0  0  0  0  0  0  0  0  0  0  0  0
    8.7944   -0.3442    1.8828 H   0  0  0  0  0  0  0  0  0  0  0  0
    9.4046    0.3918    0.3782 H   0  0  0  0  0  0  0  0  0  0  0  0
    7.0687    0.9966    1.4874 H   0  0  0  0  0  0  0  0  0  0  0  0
    5.4764    1.0075    0.7631 H   0  0  0  0  0  0  0  0  0  0  0  0
    5.2824    2.0539   -1.5034 H   0  0  0  0  0  0  0  0  0  0  0  0
    6.5089    0.8757   -2.0362 H   0  0  0  0  0  0  0  0  0  0  0  0
    5.1759    2.2105   -5.3446 H   0  0  0  0  0  0  0  0  0  0  0  0
    4.1115    0.2294   -2.6998 H   0  0  0  0  0  0  0  0  0  0  0  0
    3.9466   -2.8953   -5.3391 H   0  0  0  0  0  0  0  0  0  0  0  0
    6.0990   -3.5136   -6.5918 H   0  0  0  0  0  0  0  0  0  0  0  0
    8.0749   -2.6649   -7.8100 H   0  0  0  0  0  0  0  0  0  0  0  0
    8.5716   -0.2264   -7.7948 H   0  0  0  0  0  0  0  0  0  0  0  0
    7.3113    1.2940   -6.3354 H   0  0  0  0  0  0  0  0  0  0  0  0
    8.8416    3.2128   -3.6835 H   0  0  0  0  0  0  0  0  0  0  0  0
    8.6408    1.5529   -3.1356 H   0  0  0  0  0  0  0  0  0  0  0  0
   10.3876    2.7706   -1.8817 H   0  0  0  0  0  0  0  0  0  0  0  0
    9.1353    2.3203   -0.7701 H   0  0  0  0  0  0  0  0  0  0  0  0
    8.7178    6.5039   -0.1325 H   0  0  0  0  0  0  0  0  0  0  0  0
    6.5945    7.7505   -0.1775 H   0  0  0  0  0  0  0  0  0  0  0  0
    4.7983    4.6273   -2.5308 H   0  0  0  0  0  0  0  0  0  0  0  0
  1  2  1  0  0  0  0
  1 33  1  0  0  0  0
  1 34  1  0  0  0  0
  1 35  1  0  0  0  0
  2  3  1  0  0  0  0
  2  4  1  0  0  0  0
  3 36  1  0  0  0  0
  3 37  1  0  0  0  0
  3 38  1  0  0  0  0
  4  5  2  0  0  0  0
  4  6  1  0  0  0  0
  6  7  1  0  0  0  0
  6 39  1  0  0  0  0
  6 40  1  0  0  0  0
  7  8  1  0  0  0  0
  8  9  1  0  0  0  0
  8 41  1  0  0  0  0
  8 42  1  0  0  0  0
  9 10  1  0  0  0  0
  9 23  1  0  0  0  0
  9 32  1  0  0  0  0
 10 11  2  0  0  0  0
 10 12  1  0  0  0  0
 12 13  1  0  0  0  0
 12 43  1  0  0  0  0
 13 14  1  0  0  0  0
 13 22  2  0  0  0  0
 14 15  2  0  0  0  0
 14 44  1  0  0  0  0
 15 16  1  0  0  0  0
 16 17  2  0  0  0  0
 16 45  1  0  0  0  0
 17 18  1  0  0  0  0
 17 22  1  0  0  0  0
 18 19  2  0  0  0  0
 18 46  1  0  0  0  0
 19 20  1  0  0  0  0
 19 47  1  0  0  0  0
 20 21  2  0  0  0  0
 20 48  1  0  0  0  0
 21 22  1  0  0  0  0
 21 49  1  0  0  0  0
 23 24  1  0  0  0  0
 23 50  1  0  0  0  0
 23 51  1  0  0  0  0
 24 25  1  0  0  0  0
 24 52  1  0  0  0  0
 24 53  1  0  0  0  0
 25 26  1  0  0  0  0
 26 27  1  0  0  0  0
 26 32  2  0  0  0  0
 27 28  2  0  0  0  0
 27 54  1  0  0  0  0
 28 29  1  0  0  0  0
 28 55  1  0  0  0  0
 29 30  1  0  0  0  0
 29 31  2  0  0  0  0
 31 32  1  0  0  0  0
 31 56  1  0  0  0  0
M  END
$$$$
