
 OpenBabel07202414173D

 63 67  0  0  1  0  0  0  0  0999 V2000
    0.9325    0.0054   -0.0072 Cl  0  0  0  0  0  0  0  0  0  0  0  0
    2.6512   -0.0213   -0.0785 C   0  0  0  0  0  0  0  0  0  0  0  0
    3.3574    1.1753   -0.0431 C   0  0  0  0  0  0  0  0  0  0  0  0
    4.7517    1.1519   -0.0470 C   0  0  0  0  0  0  0  0  0  0  0  0
    5.4535   -0.0656   -0.0964 C   0  0  0  0  0  0  0  0  0  0  0  0
    4.7387   -1.2695   -0.2314 C   0  0  0  0  0  0  0  0  0  0  0  0
    3.3299   -1.2374   -0.1741 C   0  0  0  0  0  0  0  0  0  0  0  0
    5.4799   -2.5942   -0.3811 C   0  0  1  0  0  0  0  0  0  0  0  0
    4.8840   -3.4734   -1.5111 C   0  0  0  0  0  0  0  0  0  0  0  0
    4.4622   -4.6067   -1.2599 O   0  0  0  0  0  0  0  0  0  0  0  0
    4.8757   -2.8813   -2.7677 N   0  0  0  0  0  0  0  0  0  0  0  0
    4.5013   -3.4584   -4.0181 C   0  0  0  0  0  0  0  0  0  0  0  0
    4.0148   -4.7602   -4.1406 C   0  0  0  0  0  0  0  0  0  0  0  0
    3.8230   -5.4040   -5.3191 N   0  0  0  0  0  0  0  0  0  0  0  0
    4.0860   -4.7079   -6.4427 C   0  0  0  0  0  0  0  0  0  0  0  0
    4.4502   -3.3638   -6.4651 C   0  0  0  0  0  0  0  0  0  0  0  0
    4.5903   -2.6786   -7.6890 C   0  0  0  0  0  0  0  0  0  0  0  0
    4.9229   -1.3265   -7.7113 C   0  0  0  0  0  0  0  0  0  0  0  0
    5.1400   -0.6578   -6.5155 C   0  0  0  0  0  0  0  0  0  0  0  0
    5.0193   -1.3368   -5.2948 C   0  0  0  0  0  0  0  0  0  0  0  0
    4.6648   -2.7075   -5.2270 C   0  0  0  0  0  0  0  0  0  0  0  0
    7.0125   -2.4316   -0.5834 C   0  0  0  0  0  0  0  0  0  0  0  0
    7.5953   -1.3432    0.3017 N   0  0  0  0  0  0  0  0  0  0  0  0
    9.3285   -1.2607    0.3086 S   0  0  0  0  0  0  0  0  0  0  0  0
    9.8236   -2.6164    0.2245 O   0  0  0  0  0  0  0  0  0  0  0  0
    9.7095   -0.2615   -0.6597 O   0  0  0  0  0  0  0  0  0  0  0  0
    9.7278   -0.6678    1.9788 C   0  0  0  0  0  0  0  0  0  0  0  0
   11.2559   -0.3603    2.2687 C   0  0  0  0  0  0  0  0  0  0  0  0
   11.6728    0.8048    1.3860 C   0  0  0  0  0  0  0  0  0  0  0  0
   12.0186    1.7714    0.6538 N   0  0  0  0  0  0  0  0  0  0  0  0
   12.2044   -1.5561    2.0157 C   0  0  0  0  0  0  0  0  0  0  0  0
   11.9693   -2.7564    2.9287 C   0  0  0  0  0  0  0  0  0  0  0  0
   12.1901   -2.3341    4.6444 S   0  0  0  0  0  0  0  0  0  0  0  0
   11.6281   -3.4017    5.4444 O   0  0  0  0  0  0  0  0  0  0  0  0
   13.5556   -1.8880    4.8304 O   0  0  0  0  0  0  0  0  0  0  0  0
   11.1298   -0.9163    4.8079 C   0  0  0  0  0  0  0  0  0  0  0  0
   11.4150    0.1321    3.7387 C   0  0  0  0  0  0  0  0  0  0  0  0
    6.9658   -0.0320   -0.0521 C   0  0  0  0  0  0  0  0  0  0  0  0
    2.8320    2.1260    0.0038 H   0  0  0  0  0  0  0  0  0  0  0  0
    5.2924    2.0961   -0.0024 H   0  0  0  0  0  0  0  0  0  0  0  0
    2.7522   -2.1612   -0.2027 H   0  0  0  0  0  0  0  0  0  0  0  0
    5.3236   -3.1338    0.5636 H   0  0  0  0  0  0  0  0  0  0  0  0
    5.2317   -1.9356   -2.8123 H   0  0  0  0  0  0  0  0  0  0  0  0
    3.7448   -5.3662   -3.2820 H   0  0  0  0  0  0  0  0  0  0  0  0
    3.9802   -5.2796   -7.3605 H   0  0  0  0  0  0  0  0  0  0  0  0
    4.4136   -3.1880   -8.6340 H   0  0  0  0  0  0  0  0  0  0  0  0
    5.0008   -0.7979   -8.6570 H   0  0  0  0  0  0  0  0  0  0  0  0
    5.3944    0.4002   -6.5259 H   0  0  0  0  0  0  0  0  0  0  0  0
    5.1761   -0.7456   -4.3982 H   0  0  0  0  0  0  0  0  0  0  0  0
    7.2513   -2.1981   -1.6282 H   0  0  0  0  0  0  0  0  0  0  0  0
    7.4824   -3.3922   -0.3443 H   0  0  0  0  0  0  0  0  0  0  0  0
    9.3589   -1.4506    2.6485 H   0  0  0  0  0  0  0  0  0  0  0  0
    9.1305    0.2357    2.1397 H   0  0  0  0  0  0  0  0  0  0  0  0
   13.2429   -1.2207    2.1466 H   0  0  0  0  0  0  0  0  0  0  0  0
   12.1429   -1.8832    0.9723 H   0  0  0  0  0  0  0  0  0  0  0  0
   12.6852   -3.5545    2.7079 H   0  0  0  0  0  0  0  0  0  0  0  0
   10.9609   -3.1643    2.8181 H   0  0  0  0  0  0  0  0  0  0  0  0
   11.3089   -0.4999    5.8048 H   0  0  0  0  0  0  0  0  0  0  0  0
   10.0947   -1.2648    4.7706 H   0  0  0  0  0  0  0  0  0  0  0  0
   12.4395    0.5050    3.8815 H   0  0  0  0  0  0  0  0  0  0  0  0
   10.7592    0.9962    3.9130 H   0  0  0  0  0  0  0  0  0  0  0  0
    7.3033    0.2912   -1.0442 H   0  0  0  0  0  0  0  0  0  0  0  0
    7.2713    0.7075    0.6964 H   0  0  0  0  0  0  0  0  0  0  0  0
  1  2  1  0  0  0  0
  2  3  1  0  0  0  0
  2  7  2  0  0  0  0
  3  4  2  0  0  0  0
  3 39  1  0  0  0  0
  4  5  1  0  0  0  0
  4 40  1  0  0  0  0
  5  6  2  0  0  0  0
  5 38  1  0  0  0  0
  6  7  1  0  0  0  0
  6  8  1  0  0  0  0
  7 41  1  0  0  0  0
  8 22  1  0  0  0  0
  8  9  1  0  0  0  0
  8 42  1  1  0  0  0
  9 10  2  0  0  0  0
  9 11  1  0  0  0  0
 11 12  1  0  0  0  0
 11 43  1  0  0  0  0
 12 13  1  0  0  0  0
 12 21  2  0  0  0  0
 13 14  2  0  0  0  0
 13 44  1  0  0  0  0
 14 15  1  0  0  0  0
 15 16  2  0  0  0  0
 15 45  1  0  0  0  0
 16 17  1  0  0  0  0
 16 21  1  0  0  0  0
 17 18  2  0  0  0  0
 17 46  1  0  0  0  0
 18 19  1  0  0  0  0
 18 47  1  0  0  0  0
 19 20  2  0  0  0  0
 19 48  1  0  0  0  0
 20 21  1  0  0  0  0
 20 49  1  0  0  0  0
 22 23  1  0  0  0  0
 22 50  1  0  0  0  0
 22 51  1  0  0  0  0
 23 24  1  0  0  0  0
 23 38  1  0  0  0  0
 24 25  2  0  0  0  0
 24 26  2  0  0  0  0
 24 27  1  0  0  0  0
 27 28  1  0  0  0  0
 27 52  1  0  0  0  0
 27 53  1  0  0  0  0
 28 29  1  0  0  0  0
 28 31  1  0  0  0  0
 28 37  1  0  0  0  0
 29 30  3  0  0  0  0
 31 32  1  0  0  0  0
 31 54  1  0  0  0  0
 31 55  1  0  0  0  0
 32 33  1  0  0  0  0
 32 56  1  0  0  0  0
 32 57  1  0  0  0  0
 33 34  2  0  0  0  0
 33 35  2  0  0  0  0
 33 36  1  0  0  0  0
 36 37  1  0  0  0  0
 36 58  1  0  0  0  0
 36 59  1  0  0  0  0
 37 60  1  0  0  0  0
 37 61  1  0  0  0  0
 38 62  1  0  0  0  0
 38 63  1  0  0  0  0
M  END
$$$$
