
 OpenBabel07202414143D

 50 53  0  0  0  0  0  0  0  0999 V2000
    7.1456    4.0112   -1.9291 C   0  0  0  0  0  0  0  0  0  0  0  0
    6.2821    3.6643   -0.8549 O   0  0  0  0  0  0  0  0  0  0  0  0
    6.7313    2.7916    0.1070 C   0  0  0  0  0  0  0  0  0  0  0  0
    8.0448    2.7176    0.6147 C   0  0  0  0  0  0  0  0  0  0  0  0
    9.3818    3.6699    0.0637 Cl  0  0  0  0  0  0  0  0  0  0  0  0
    8.3436    1.8711    1.6931 C   0  0  0  0  0  0  0  0  0  0  0  0
    7.3487    1.1204    2.3057 C   0  0  0  0  0  0  0  0  0  0  0  0
    6.0479    1.1903    1.8235 C   0  0  0  0  0  0  0  0  0  0  0  0
    5.7257    1.9863    0.7089 C   0  0  0  0  0  0  0  0  0  0  0  0
    4.3561    1.9658    0.3207 N   0  0  0  0  0  0  0  0  0  0  0  0
    3.7837    2.0035   -0.9654 C   0  0  0  0  0  0  0  0  0  0  0  0
    2.4394    2.3669   -1.1163 C   0  0  0  0  0  0  0  0  0  0  0  0
    1.8426    2.3632   -2.3783 C   0  0  0  0  0  0  0  0  0  0  0  0
    0.1915    2.8231   -2.5398 Cl  0  0  0  0  0  0  0  0  0  0  0  0
    2.5686    1.9935   -3.5100 C   0  0  0  0  0  0  0  0  0  0  0  0
    3.9081    1.6130   -3.3809 C   0  0  0  0  0  0  0  0  0  0  0  0
    4.7409    1.2512   -4.5870 C   0  0  0  0  0  0  0  0  0  0  0  0
    4.7719   -0.2063   -5.0125 C   0  0  0  0  0  0  0  0  0  0  0  0
    5.1754   -0.5034   -6.1377 O   0  0  0  0  0  0  0  0  0  0  0  0
    4.3532   -1.1295   -4.0765 N   0  0  0  0  0  0  0  0  0  0  0  0
    4.3567   -2.5248   -4.3097 C   0  0  0  0  0  0  0  0  0  0  0  0
    5.4331   -3.1515   -4.9411 C   0  0  0  0  0  0  0  0  0  0  0  0
    5.5284   -4.4829   -5.1450 N   0  0  0  0  0  0  0  0  0  0  0  0
    4.4768   -5.2250   -4.7329 C   0  0  0  0  0  0  0  0  0  0  0  0
    3.3319   -4.7131   -4.1190 C   0  0  0  0  0  0  0  0  0  0  0  0
    2.2499   -5.5411   -3.7697 C   0  0  0  0  0  0  0  0  0  0  0  0
    1.0950   -5.0031   -3.2049 C   0  0  0  0  0  0  0  0  0  0  0  0
    1.0102   -3.6366   -2.9768 C   0  0  0  0  0  0  0  0  0  0  0  0
    2.0802   -2.8059   -3.3078 C   0  0  0  0  0  0  0  0  0  0  0  0
    3.2675   -3.3216   -3.8855 C   0  0  0  0  0  0  0  0  0  0  0  0
    4.4855    1.5835   -2.1021 C   0  0  0  0  0  0  0  0  0  0  0  0
    6.5223    4.2870   -2.7859 H   0  0  0  0  0  0  0  0  0  0  0  0
    7.7826    3.1791   -2.2470 H   0  0  0  0  0  0  0  0  0  0  0  0
    7.7290    4.8992   -1.6705 H   0  0  0  0  0  0  0  0  0  0  0  0
    9.3586    1.8176    2.0817 H   0  0  0  0  0  0  0  0  0  0  0  0
    7.5850    0.4885    3.1576 H   0  0  0  0  0  0  0  0  0  0  0  0
    5.2725    0.5991    2.3074 H   0  0  0  0  0  0  0  0  0  0  0  0
    3.7803    2.4058    1.0322 H   0  0  0  0  0  0  0  0  0  0  0  0
    1.8534    2.6650   -0.2516 H   0  0  0  0  0  0  0  0  0  0  0  0
    2.0924    2.0160   -4.4878 H   0  0  0  0  0  0  0  0  0  0  0  0
    5.7806    1.5525   -4.4083 H   0  0  0  0  0  0  0  0  0  0  0  0
    4.3890    1.8406   -5.4429 H   0  0  0  0  0  0  0  0  0  0  0  0
    3.7639   -0.7951   -3.3265 H   0  0  0  0  0  0  0  0  0  0  0  0
    6.3014   -2.5875   -5.2746 H   0  0  0  0  0  0  0  0  0  0  0  0
    4.5797   -6.2871   -4.9373 H   0  0  0  0  0  0  0  0  0  0  0  0
    2.2936   -6.6121   -3.9559 H   0  0  0  0  0  0  0  0  0  0  0  0
    0.2551   -5.6488   -2.9609 H   0  0  0  0  0  0  0  0  0  0  0  0
    0.1019   -3.2077   -2.5584 H   0  0  0  0  0  0  0  0  0  0  0  0
    1.9531   -1.7403   -3.1388 H   0  0  0  0  0  0  0  0  0  0  0  0
    5.5145    1.2453   -1.9931 H   0  0  0  0  0  0  0  0  0  0  0  0
  1  2  1  0  0  0  0
  1 32  1  0  0  0  0
  1 33  1  0  0  0  0
  1 34  1  0  0  0  0
  2  3  1  0  0  0  0
  3  4  2  0  0  0  0
  3  9  1  0  0  0  0
  4  5  1  0  0  0  0
  4  6  1  0  0  0  0
  6  7  2  0  0  0  0
  6 35  1  0  0  0  0
  7  8  1  0  0  0  0
  7 36  1  0  0  0  0
  8  9  2  0  0  0  0
  8 37  1  0  0  0  0
  9 10  1  0  0  0  0
 10 11  1  0  0  0  0
 10 38  1  0  0  0  0
 11 12  2  0  0  0  0
 11 31  1  0  0  0  0
 12 13  1  0  0  0  0
 12 39  1  0  0  0  0
 13 14  1  0  0  0  0
 13 15  2  0  0  0  0
 15 16  1  0  0  0  0
 15 40  1  0  0  0  0
 16 17  1  0  0  0  0
 16 31  2  0  0  0  0
 17 18  1  0  0  0  0
 17 41  1  0  0  0  0
 17 42  1  0  0  0  0
 18 19  2  0  0  0  0
 18 20  1  0  0  0  0
 20 21  1  0  0  0  0
 20 43  1  0  0  0  0
 21 22  2  0  0  0  0
 21 30  1  0  0  0  0
 22 23  1  0  0  0  0
 22 44  1  0  0  0  0
 23 24  2  0  0  0  0
 24 25  1  0  0  0  0
 24 45  1  0  0  0  0
 25 26  2  0  0  0  0
 25 30  1  0  0  0  0
 26 27  1  0  0  0  0
 26 46  1  0  0  0  0
 27 28  2  0  0  0  0
 27 47  1  0  0  0  0
 28 29  1  0  0  0  0
 28 48  1  0  0  0  0
 29 30  2  0  0  0  0
 29 49  1  0  0  0  0
 31 50  1  0  0  0  0
M  END
$$$$
