
 OpenBabel07202414183D

 55 58  0  0  0  0  0  0  0  0999 V2000
    2.6028    2.7968    1.7115 F   0  0  0  0  0  0  0  0  0  0  0  0
    3.7987    2.1830    1.4863 C   0  0  0  0  0  0  0  0  0  0  0  0
    3.7272    1.6913    0.2158 F   0  0  0  0  0  0  0  0  0  0  0  0
    4.7270    3.1794    1.4431 F   0  0  0  0  0  0  0  0  0  0  0  0
    4.1398    1.1165    2.4960 C   0  0  0  0  0  0  0  0  0  0  0  0
    3.2978    0.8463    3.5816 C   0  0  0  0  0  0  0  0  0  0  0  0
    3.6243   -0.1463    4.5055 C   0  0  0  0  0  0  0  0  0  0  0  0
    4.8039   -0.8966    4.3525 C   0  0  0  0  0  0  0  0  0  0  0  0
    5.1841   -1.9469    5.3648 C   0  0  0  0  0  0  0  0  0  0  0  0
    4.1486   -3.0693    5.5012 C   0  0  0  0  0  0  0  0  0  0  0  0
    4.5626   -4.0476    6.5101 N   0  0  0  0  0  0  0  0  0  0  0  0
    4.7005   -3.6295    7.8461 C   0  0  0  0  0  0  0  0  0  0  0  0
    3.9464   -2.5955    8.4329 C   0  0  0  0  0  0  0  0  0  0  0  0
    4.1545   -2.2105    9.7636 C   0  0  0  0  0  0  0  0  0  0  0  0
    3.3377   -1.1316   10.4517 C   0  0  0  0  0  0  0  0  0  0  0  0
    2.8287    0.0177    9.5904 C   0  0  0  0  0  0  0  0  0  0  0  0
    1.6689    0.0669    9.1924 O   0  0  0  0  0  0  0  0  0  0  0  0
    3.7999    0.9685    9.3084 N   0  0  0  0  0  0  0  0  0  0  0  0
    3.5181    2.1077    8.5039 C   0  0  0  0  0  0  0  0  0  0  0  0
    4.2238    2.2408    7.3082 C   0  0  0  0  0  0  0  0  0  0  0  0
    4.1018    3.2810    6.4589 N   0  0  0  0  0  0  0  0  0  0  0  0
    3.3442    4.3096    6.8901 C   0  0  0  0  0  0  0  0  0  0  0  0
    2.7187    4.3622    8.1350 C   0  0  0  0  0  0  0  0  0  0  0  0
    2.1678    5.5663    8.6096 C   0  0  0  0  0  0  0  0  0  0  0  0
    1.5344    5.6169    9.8468 C   0  0  0  0  0  0  0  0  0  0  0  0
    1.3721    4.4466   10.5783 C   0  0  0  0  0  0  0  0  0  0  0  0
    1.9522    3.2509   10.1318 C   0  0  0  0  0  0  0  0  0  0  0  0
    2.7074    3.1943    8.9331 C   0  0  0  0  0  0  0  0  0  0  0  0
    5.0867   -2.9278   10.5310 C   0  0  0  0  0  0  0  0  0  0  0  0
    5.7911   -3.9930    9.9726 C   0  0  0  0  0  0  0  0  0  0  0  0
    6.9155   -4.8719   10.9360 Cl  0  0  0  0  0  0  0  0  0  0  0  0
    5.5937   -4.3499    8.6437 C   0  0  0  0  0  0  0  0  0  0  0  0
    5.6535   -0.6186    3.2782 C   0  0  0  0  0  0  0  0  0  0  0  0
    5.3226    0.3753    2.3568 C   0  0  0  0  0  0  0  0  0  0  0  0
    2.3827    1.4213    3.7262 H   0  0  0  0  0  0  0  0  0  0  0  0
    2.9629   -0.3134    5.3509 H   0  0  0  0  0  0  0  0  0  0  0  0
    5.3527   -1.4317    6.3206 H   0  0  0  0  0  0  0  0  0  0  0  0
    6.1551   -2.3893    5.1018 H   0  0  0  0  0  0  0  0  0  0  0  0
    4.0752   -3.5961    4.5420 H   0  0  0  0  0  0  0  0  0  0  0  0
    3.1429   -2.6925    5.7142 H   0  0  0  0  0  0  0  0  0  0  0  0
    3.9679   -4.8807    6.4825 H   0  0  0  0  0  0  0  0  0  0  0  0
    3.1849   -2.0885    7.8478 H   0  0  0  0  0  0  0  0  0  0  0  0
    3.9293   -0.6826   11.2591 H   0  0  0  0  0  0  0  0  0  0  0  0
    2.4670   -1.5987   10.9228 H   0  0  0  0  0  0  0  0  0  0  0  0
    4.7241    0.5666    9.1869 H   0  0  0  0  0  0  0  0  0  0  0  0
    4.9243    1.4802    6.9768 H   0  0  0  0  0  0  0  0  0  0  0  0
    3.2627    5.1343    6.1856 H   0  0  0  0  0  0  0  0  0  0  0  0
    2.2844    6.4868    8.0398 H   0  0  0  0  0  0  0  0  0  0  0  0
    1.1653    6.5643   10.2323 H   0  0  0  0  0  0  0  0  0  0  0  0
    0.8150    4.4679   11.5120 H   0  0  0  0  0  0  0  0  0  0  0  0
    1.8162    2.3597   10.7385 H   0  0  0  0  0  0  0  0  0  0  0  0
    5.2506   -2.6768   11.5776 H   0  0  0  0  0  0  0  0  0  0  0  0
    6.1536   -5.1738    8.2072 H   0  0  0  0  0  0  0  0  0  0  0  0
    6.5829   -1.1705    3.1508 H   0  0  0  0  0  0  0  0  0  0  0  0
    5.9968    0.5771    1.5254 H   0  0  0  0  0  0  0  0  0  0  0  0
  1  2  1  0  0  0  0
  2  3  1  0  0  0  0
  2  4  1  0  0  0  0
  2  5  1  0  0  0  0
  5  6  2  0  0  0  0
  5 34  1  0  0  0  0
  6  7  1  0  0  0  0
  6 35  1  0  0  0  0
  7  8  2  0  0  0  0
  7 36  1  0  0  0  0
  8  9  1  0  0  0  0
  8 33  1  0  0  0  0
  9 10  1  0  0  0  0
  9 37  1  0  0  0  0
  9 38  1  0  0  0  0
 10 11  1  0  0  0  0
 10 39  1  0  0  0  0
 10 40  1  0  0  0  0
 11 12  1  0  0  0  0
 11 41  1  0  0  0  0
 12 13  2  0  0  0  0
 12 32  1  0  0  0  0
 13 14  1  0  0  0  0
 13 42  1  0  0  0  0
 14 15  1  0  0  0  0
 14 29  2  0  0  0  0
 15 16  1  0  0  0  0
 15 43  1  0  0  0  0
 15 44  1  0  0  0  0
 16 17  2  0  0  0  0
 16 18  1  0  0  0  0
 18 19  1  0  0  0  0
 18 45  1  0  0  0  0
 19 20  2  0  0  0  0
 19 28  1  0  0  0  0
 20 21  1  0  0  0  0
 20 46  1  0  0  0  0
 21 22  2  0  0  0  0
 22 23  1  0  0  0  0
 22 47  1  0  0  0  0
 23 24  2  0  0  0  0
 23 28  1  0  0  0  0
 24 25  1  0  0  0  0
 24 48  1  0  0  0  0
 25 26  2  0  0  0  0
 25 49  1  0  0  0  0
 26 27  1  0  0  0  0
 26 50  1  0  0  0  0
 27 28  2  0  0  0  0
 27 51  1  0  0  0  0
 29 30  1  0  0  0  0
 29 52  1  0  0  0  0
 30 31  1  0  0  0  0
 30 32  2  0  0  0  0
 32 53  1  0  0  0  0
 33 34  2  0  0  0  0
 33 54  1  0  0  0  0
 34 55  1  0  0  0  0
M  END
$$$$
