
 OpenBabel07202414113D

 68 72  0  0  1  0  0  0  0  0999 V2000
    2.1625    1.4756    0.7715 C   0  0  0  0  0  0  0  0  0  0  0  0
    2.1489    0.3155    0.0889 C   0  0  0  0  0  0  0  0  0  0  0  0
    1.2090    0.0896   -1.0497 C   0  0  0  0  0  0  0  0  0  0  0  0
    0.9209   -1.0347   -1.4309 O   0  0  0  0  0  0  0  0  0  0  0  0
    0.7442    1.1934   -1.6590 O   0  0  0  0  0  0  0  0  0  0  0  0
    2.9438   -0.9508    0.4264 C   0  0  1  0  0  0  0  0  0  0  0  0
    3.9953   -1.2495   -0.6301 C   0  0  0  0  0  0  0  0  0  0  0  0
    5.3468   -1.3063    0.0938 C   0  0  2  0  0  0  0  0  0  0  0  0
    6.1907   -0.1865   -0.5135 C   0  0  0  0  0  0  0  0  0  0  0  0
    7.6031   -0.2932   -0.2109 N   0  0  0  0  0  0  0  0  0  0  0  0
    8.3171    0.8276    0.4153 C   0  0  0  0  0  0  0  0  0  0  0  0
    8.1334    2.1582   -0.3052 C   0  0  0  0  0  0  0  0  0  0  0  0
    7.1277    2.4608   -0.9349 O   0  0  0  0  0  0  0  0  0  0  0  0
    9.2312    2.9556   -0.1693 O   0  0  0  0  0  0  0  0  0  0  0  0
    9.4736    3.9374   -1.2113 C   0  0  0  0  0  0  0  0  0  0  0  0
    8.3675    4.9960   -1.3444 C   0  0  0  0  0  0  0  0  0  0  0  0
   10.7697    4.6684   -0.8287 C   0  0  0  0  0  0  0  0  0  0  0  0
    9.7108    3.1803   -2.5248 C   0  0  0  0  0  0  0  0  0  0  0  0
    8.2623   -1.4618   -0.5400 C   0  0  0  0  0  0  0  0  0  0  0  0
    9.4707   -1.5357   -0.7249 O   0  0  0  0  0  0  0  0  0  0  0  0
    7.4056   -2.6905   -0.5426 C   0  0  0  0  0  0  0  0  0  0  0  0
    8.0061   -3.9146   -0.8716 C   0  0  0  0  0  0  0  0  0  0  0  0
    7.2933   -5.1057   -0.7349 C   0  0  0  0  0  0  0  0  0  0  0  0
    5.9943   -5.0766   -0.2363 C   0  0  0  0  0  0  0  0  0  0  0  0
    5.1216   -6.5460   -0.0404 Cl  0  0  0  0  0  0  0  0  0  0  0  0
    5.3810   -3.8636    0.0849 C   0  0  0  0  0  0  0  0  0  0  0  0
    6.0580   -2.6452   -0.1105 C   0  0  0  0  0  0  0  0  0  0  0  0
    4.9984   -1.0137    1.5611 C   0  0  0  0  0  0  0  0  0  0  0  0
    5.8508   -0.9321    2.4369 O   0  0  0  0  0  0  0  0  0  0  0  0
    3.6040   -0.9019    1.7141 N   0  0  0  0  0  0  0  0  0  0  0  0
    2.8756   -0.8644    2.9845 C   0  0  0  0  0  0  0  0  0  0  0  0
    3.5881   -0.5895    4.1606 C   0  0  0  0  0  0  0  0  0  0  0  0
    3.0534   -0.5411    5.4124 N   0  0  0  0  0  0  0  0  0  0  0  0
    1.7206   -0.6788    5.5060 C   0  0  0  0  0  0  0  0  0  0  0  0
    0.8700   -0.8257    4.4243 C   0  0  0  0  0  0  0  0  0  0  0  0
   -0.5288   -0.7800    4.6383 C   0  0  0  0  0  0  0  0  0  0  0  0
   -1.4245   -0.9419    3.5872 C   0  0  0  0  0  0  0  0  0  0  0  0
   -0.9337   -1.2720    2.3545 C   0  0  0  0  0  0  0  0  0  0  0  0
    0.4464   -1.3507    2.1506 C   0  0  0  0  0  0  0  0  0  0  0  0
    1.4313   -1.0190    3.1338 C   0  0  0  0  0  0  0  0  0  0  0  0
    1.4887    2.3056    0.5763 H   0  0  0  0  0  0  0  0  0  0  0  0
    2.8077    1.6281    1.6342 H   0  0  0  0  0  0  0  0  0  0  0  0
    1.1249    2.0390   -1.3660 H   0  0  0  0  0  0  0  0  0  0  0  0
    2.3386   -1.8544    0.4361 H   0  0  0  0  0  0  0  0  0  0  0  0
    3.9746   -0.5059   -1.4375 H   0  0  0  0  0  0  0  0  0  0  0  0
    3.7452   -2.1930   -1.1324 H   0  0  0  0  0  0  0  0  0  0  0  0
    5.7850    0.7859   -0.2291 H   0  0  0  0  0  0  0  0  0  0  0  0
    6.1419   -0.2558   -1.6137 H   0  0  0  0  0  0  0  0  0  0  0  0
    9.3842    0.5892    0.4662 H   0  0  0  0  0  0  0  0  0  0  0  0
    7.9334    0.9198    1.4360 H   0  0  0  0  0  0  0  0  0  0  0  0
    8.2443    5.5534   -0.4092 H   0  0  0  0  0  0  0  0  0  0  0  0
    7.3884    4.5796   -1.5868 H   0  0  0  0  0  0  0  0  0  0  0  0
    8.6062    5.7074   -2.1429 H   0  0  0  0  0  0  0  0  0  0  0  0
   10.6481    5.2184    0.1118 H   0  0  0  0  0  0  0  0  0  0  0  0
   11.0643    5.3832   -1.6057 H   0  0  0  0  0  0  0  0  0  0  0  0
   11.5940    3.9640   -0.6752 H   0  0  0  0  0  0  0  0  0  0  0  0
    8.8207    2.6260   -2.8393 H   0  0  0  0  0  0  0  0  0  0  0  0
   10.5039    2.4334   -2.3933 H   0  0  0  0  0  0  0  0  0  0  0  0
    9.9938    3.8541   -3.3377 H   0  0  0  0  0  0  0  0  0  0  0  0
    9.0373   -3.9437   -1.2211 H   0  0  0  0  0  0  0  0  0  0  0  0
    7.7648   -6.0495   -0.9966 H   0  0  0  0  0  0  0  0  0  0  0  0
    4.3644   -3.8779    0.4727 H   0  0  0  0  0  0  0  0  0  0  0  0
    4.6310   -0.3371    4.1694 H   0  0  0  0  0  0  0  0  0  0  0  0
    1.3455   -0.6708    6.5258 H   0  0  0  0  0  0  0  0  0  0  0  0
   -0.9278   -0.5823    5.6347 H   0  0  0  0  0  0  0  0  0  0  0  0
   -2.4926   -0.8403    3.7472 H   0  0  0  0  0  0  0  0  0  0  0  0
   -1.6086   -1.4682    1.5156 H   0  0  0  0  0  0  0  0  0  0  0  0
    0.6977   -1.7038    1.1627 H   0  0  0  0  0  0  0  0  0  0  0  0
  1  2  2  0  0  0  0
  1 41  1  0  0  0  0
  1 42  1  0  0  0  0
  2  3  1  0  0  0  0
  2  6  1  0  0  0  0
  3  4  2  0  0  0  0
  3  5  1  0  0  0  0
  5 43  1  0  0  0  0
  6  7  1  0  0  0  0
  6 30  1  0  0  0  0
  6 44  1  1  0  0  0
  7  8  1  0  0  0  0
  7 45  1  0  0  0  0
  7 46  1  0  0  0  0
  8  9  1  0  0  0  0
  8 27  1  6  0  0  0
  8 28  1  0  0  0  0
  9 10  1  0  0  0  0
  9 47  1  0  0  0  0
  9 48  1  0  0  0  0
 10 11  1  0  0  0  0
 10 19  1  0  0  0  0
 11 12  1  0  0  0  0
 11 49  1  0  0  0  0
 11 50  1  0  0  0  0
 12 13  2  0  0  0  0
 12 14  1  0  0  0  0
 14 15  1  0  0  0  0
 15 16  1  0  0  0  0
 15 17  1  0  0  0  0
 15 18  1  0  0  0  0
 16 51  1  0  0  0  0
 16 52  1  0  0  0  0
 16 53  1  0  0  0  0
 17 54  1  0  0  0  0
 17 55  1  0  0  0  0
 17 56  1  0  0  0  0
 18 57  1  0  0  0  0
 18 58  1  0  0  0  0
 18 59  1  0  0  0  0
 19 20  2  0  0  0  0
 19 21  1  0  0  0  0
 21 22  1  0  0  0  0
 21 27  2  0  0  0  0
 22 23  2  0  0  0  0
 22 60  1  0  0  0  0
 23 24  1  0  0  0  0
 23 61  1  0  0  0  0
 24 25  1  0  0  0  0
 24 26  2  0  0  0  0
 26 27  1  0  0  0  0
 26 62  1  0  0  0  0
 28 29  2  0  0  0  0
 28 30  1  0  0  0  0
 30 31  1  0  0  0  0
 31 32  1  0  0  0  0
 31 40  2  0  0  0  0
 32 33  2  0  0  0  0
 32 63  1  0  0  0  0
 33 34  1  0  0  0  0
 34 35  2  0  0  0  0
 34 64  1  0  0  0  0
 35 36  1  0  0  0  0
 35 40  1  0  0  0  0
 36 37  2  0  0  0  0
 36 65  1  0  0  0  0
 37 38  1  0  0  0  0
 37 66  1  0  0  0  0
 38 39  2  0  0  0  0
 38 67  1  0  0  0  0
 39 40  1  0  0  0  0
 39 68  1  0  0  0  0
M  END
$$$$
