
 OpenBabel07202414123D

 66 69  0  0  1  0  0  0  0  0999 V2000
    3.0801    0.0535   -1.4384 C   0  0  0  0  0  0  0  0  0  0  0  0
    2.5126   -0.0256    0.0019 C   0  0  0  0  0  0  0  0  0  0  0  0
    1.0041   -0.3188   -0.0870 C   0  0  0  0  0  0  0  0  0  0  0  0
    3.2057   -1.2358    0.6704 C   0  0  0  0  0  0  0  0  0  0  0  0
    2.7350    1.2815    0.7837 C   0  0  0  0  0  0  0  0  0  0  0  0
    2.9080    2.5030    0.1306 C   0  0  0  0  0  0  0  0  0  0  0  0
    3.2218    3.6887    0.8215 C   0  0  0  0  0  0  0  0  0  0  0  0
    3.3391    3.7501    2.2143 C   0  0  0  0  0  0  0  0  0  0  0  0
    3.7858    4.9691    2.9367 N   0  0  0  0  0  0  0  0  0  0  0  0
    4.2529    4.7697    4.3367 C   0  0  3  0  0  0  0  0  0  0  0  0
    5.7953    5.0136    4.4718 C   0  0  0  0  0  0  0  0  0  0  0  0
    6.3569    6.0437    4.1268 O   0  0  0  0  0  0  0  0  0  0  0  0
    6.5434    3.9725    5.0025 N   0  0  0  0  0  0  0  0  0  0  0  0
    7.9841    4.1366    5.2102 C   0  0  0  0  0  0  0  0  0  0  0  0
    8.2803    4.7786    6.5699 C   0  0  0  0  0  0  0  0  0  0  0  0
    9.7518    4.9499    6.8608 C   0  0  0  0  0  0  0  0  0  0  0  0
   10.4059    6.1537    6.5514 C   0  0  0  0  0  0  0  0  0  0  0  0
   11.7516    6.3401    6.8791 C   0  0  0  0  0  0  0  0  0  0  0  0
   12.4643    5.3238    7.5141 C   0  0  0  0  0  0  0  0  0  0  0  0
   11.8261    4.1232    7.8003 C   0  0  0  0  0  0  0  0  0  0  0  0
   12.5064    3.1424    8.4059 F   0  0  0  0  0  0  0  0  0  0  0  0
   10.4832    3.9280    7.4802 C   0  0  0  0  0  0  0  0  0  0  0  0
    3.3373    5.3437    5.4203 C   0  0  0  0  0  0  0  0  0  0  0  0
    2.1333    6.0202    5.1484 C   0  0  0  0  0  0  0  0  0  0  0  0
    1.2845    6.4142    6.1809 C   0  0  0  0  0  0  0  0  0  0  0  0
    1.6366    6.0867    7.4733 C   0  0  0  0  0  0  0  0  0  0  0  0
    2.7856    5.4562    7.7898 N   0  0  0  0  0  0  0  0  0  0  0  0
    3.6076    5.1110    6.7687 C   0  0  0  0  0  0  0  0  0  0  0  0
    3.7967    6.2581    2.2834 C   0  0  0  0  0  0  0  0  0  0  0  0
    3.4457    6.3587    1.1076 O   0  0  0  0  0  0  0  0  0  0  0  0
    4.1162    7.5281    2.9541 C   0  0  0  0  0  0  0  0  0  0  0  0
    4.4958    8.0081    4.1916 C   0  0  0  0  0  0  0  0  0  0  0  0
    4.5520    9.4002    4.0701 C   0  0  0  0  0  0  0  0  0  0  0  0
    4.2321    9.8041    2.8398 N   0  0  0  0  0  0  0  0  0  0  0  0
    3.9734    8.6377    2.1424 O   0  0  0  0  0  0  0  0  0  0  0  0
    3.0132    2.5449    2.8712 C   0  0  0  0  0  0  0  0  0  0  0  0
    2.7460    1.3390    2.1794 C   0  0  0  0  0  0  0  0  0  0  0  0
    2.9746   -0.9021   -1.9646 H   0  0  0  0  0  0  0  0  0  0  0  0
    4.1462    0.3113   -1.4287 H   0  0  0  0  0  0  0  0  0  0  0  0
    2.5579    0.7985   -2.0485 H   0  0  0  0  0  0  0  0  0  0  0  0
    0.8165   -1.2436   -0.6470 H   0  0  0  0  0  0  0  0  0  0  0  0
    0.4676    0.4899   -0.5953 H   0  0  0  0  0  0  0  0  0  0  0  0
    0.5588   -0.4405    0.9068 H   0  0  0  0  0  0  0  0  0  0  0  0
    3.0535   -2.1486    0.0789 H   0  0  0  0  0  0  0  0  0  0  0  0
    2.8121   -1.4456    1.6698 H   0  0  0  0  0  0  0  0  0  0  0  0
    4.2866   -1.0779    0.7590 H   0  0  0  0  0  0  0  0  0  0  0  0
    2.8302    2.5833   -0.9504 H   0  0  0  0  0  0  0  0  0  0  0  0
    3.3964    4.5369    0.1718 H   0  0  0  0  0  0  0  0  0  0  0  0
    4.1980    3.7060    4.5618 H   0  0  0  0  0  0  0  0  0  0  0  0
    6.1907    3.0243    4.9298 H   0  0  0  0  0  0  0  0  0  0  0  0
    8.4045    4.7454    4.3995 H   0  0  0  0  0  0  0  0  0  0  0  0
    8.4384    3.1425    5.1426 H   0  0  0  0  0  0  0  0  0  0  0  0
    7.8275    4.1711    7.3650 H   0  0  0  0  0  0  0  0  0  0  0  0
    7.7829    5.7547    6.6419 H   0  0  0  0  0  0  0  0  0  0  0  0
    9.8646    6.9644    6.0641 H   0  0  0  0  0  0  0  0  0  0  0  0
   12.2436    7.2840    6.6482 H   0  0  0  0  0  0  0  0  0  0  0  0
   13.5057    5.4585    7.7886 H   0  0  0  0  0  0  0  0  0  0  0  0
   10.0199    2.9792    7.7357 H   0  0  0  0  0  0  0  0  0  0  0  0
    1.8237    6.2581    4.1335 H   0  0  0  0  0  0  0  0  0  0  0  0
    0.3608    6.9451    5.9721 H   0  0  0  0  0  0  0  0  0  0  0  0
    0.9799    6.3175    8.3083 H   0  0  0  0  0  0  0  0  0  0  0  0
    4.5105    4.5981    7.0927 H   0  0  0  0  0  0  0  0  0  0  0  0
    4.7314    7.4749    5.0945 H   0  0  0  0  0  0  0  0  0  0  0  0
    4.8049   10.1393    4.8162 H   0  0  0  0  0  0  0  0  0  0  0  0
    2.9113    2.4747    3.9503 H   0  0  0  0  0  0  0  0  0  0  0  0
    2.5406    0.4491    2.7718 H   0  0  0  0  0  0  0  0  0  0  0  0
  1  2  1  0  0  0  0
  1 38  1  0  0  0  0
  1 39  1  0  0  0  0
  1 40  1  0  0  0  0
  2  3  1  0  0  0  0
  2  4  1  0  0  0  0
  2  5  1  0  0  0  0
  3 41  1  0  0  0  0
  3 42  1  0  0  0  0
  3 43  1  0  0  0  0
  4 44  1  0  0  0  0
  4 45  1  0  0  0  0
  4 46  1  0  0  0  0
  5  6  1  0  0  0  0
  5 37  2  0  0  0  0
  6  7  2  0  0  0  0
  6 47  1  0  0  0  0
  7  8  1  0  0  0  0
  7 48  1  0  0  0  0
  8  9  1  0  0  0  0
  8 36  2  0  0  0  0
  9 10  1  0  0  0  0
  9 29  1  0  0  0  0
 10 11  1  0  0  0  0
 10 23  1  0  0  0  0
 10 49  1  0  0  0  0
 11 12  2  0  0  0  0
 11 13  1  0  0  0  0
 13 14  1  0  0  0  0
 13 50  1  0  0  0  0
 14 15  1  0  0  0  0
 14 51  1  0  0  0  0
 14 52  1  0  0  0  0
 15 16  1  0  0  0  0
 15 53  1  0  0  0  0
 15 54  1  0  0  0  0
 16 17  1  0  0  0  0
 16 22  2  0  0  0  0
 17 18  2  0  0  0  0
 17 55  1  0  0  0  0
 18 19  1  0  0  0  0
 18 56  1  0  0  0  0
 19 20  2  0  0  0  0
 19 57  1  0  0  0  0
 20 21  1  0  0  0  0
 20 22  1  0  0  0  0
 22 58  1  0  0  0  0
 23 24  1  0  0  0  0
 23 28  2  0  0  0  0
 24 25  2  0  0  0  0
 24 59  1  0  0  0  0
 25 26  1  0  0  0  0
 25 60  1  0  0  0  0
 26 27  2  0  0  0  0
 26 61  1  0  0  0  0
 27 28  1  0  0  0  0
 28 62  1  0  0  0  0
 29 30  2  0  0  0  0
 29 31  1  0  0  0  0
 31 32  2  0  0  0  0
 31 35  1  0  0  0  0
 32 33  1  0  0  0  0
 32 63  1  0  0  0  0
 33 34  2  0  0  0  0
 33 64  1  0  0  0  0
 34 35  1  0  0  0  0
 36 37  1  0  0  0  0
 36 65  1  0  0  0  0
 37 66  1  0  0  0  0
M  END
$$$$
