
 OpenBabel07202414143D

 50 53  0  0  0  0  0  0  0  0999 V2000
    9.0770    0.4878   -7.1873 C   0  0  0  0  0  0  0  0  0  0  0  0
    9.0789    1.7223   -6.4759 O   0  0  0  0  0  0  0  0  0  0  0  0
    8.0561    1.9005   -5.5813 C   0  0  0  0  0  0  0  0  0  0  0  0
    7.7184    3.2091   -5.2172 C   0  0  0  0  0  0  0  0  0  0  0  0
    8.5735    4.5686   -5.8546 Cl  0  0  0  0  0  0  0  0  0  0  0  0
    6.6569    3.4490   -4.3423 C   0  0  0  0  0  0  0  0  0  0  0  0
    5.9354    2.3746   -3.8157 C   0  0  0  0  0  0  0  0  0  0  0  0
    4.6161    2.7177   -2.7526 Cl  0  0  0  0  0  0  0  0  0  0  0  0
    6.2832    1.0489   -4.1296 C   0  0  0  0  0  0  0  0  0  0  0  0
    5.6067   -0.0545   -3.5629 N   0  0  0  0  0  0  0  0  0  0  0  0
    6.0981   -1.3302   -3.2308 C   0  0  0  0  0  0  0  0  0  0  0  0
    5.2609   -2.4459   -3.3074 C   0  0  0  0  0  0  0  0  0  0  0  0
    5.7545   -3.7185   -3.0219 C   0  0  0  0  0  0  0  0  0  0  0  0
    4.7071   -5.0806   -3.1234 Cl  0  0  0  0  0  0  0  0  0  0  0  0
    7.0921   -3.9069   -2.6641 C   0  0  0  0  0  0  0  0  0  0  0  0
    7.9507   -2.8072   -2.5804 C   0  0  0  0  0  0  0  0  0  0  0  0
    9.4147   -2.9848   -2.2480 C   0  0  0  0  0  0  0  0  0  0  0  0
    9.9176   -2.1279   -1.0987 C   0  0  0  0  0  0  0  0  0  0  0  0
   10.9983   -1.5479   -1.1733 O   0  0  0  0  0  0  0  0  0  0  0  0
    9.1235   -2.1629    0.0321 N   0  0  0  0  0  0  0  0  0  0  0  0
    9.4253   -1.4515    1.2169 C   0  0  0  0  0  0  0  0  0  0  0  0
    9.9496   -0.1579    1.1715 C   0  0  0  0  0  0  0  0  0  0  0  0
   10.2200    0.5964    2.2603 N   0  0  0  0  0  0  0  0  0  0  0  0
    9.9904    0.0184    3.4581 C   0  0  0  0  0  0  0  0  0  0  0  0
    9.4945   -1.2757    3.6351 C   0  0  0  0  0  0  0  0  0  0  0  0
    9.3322   -1.8301    4.9172 C   0  0  0  0  0  0  0  0  0  0  0  0
    8.8844   -3.1405    5.0740 C   0  0  0  0  0  0  0  0  0  0  0  0
    8.5854   -3.9071    3.9552 C   0  0  0  0  0  0  0  0  0  0  0  0
    8.7282   -3.3623    2.6776 C   0  0  0  0  0  0  0  0  0  0  0  0
    9.1856   -2.0355    2.4844 C   0  0  0  0  0  0  0  0  0  0  0  0
    7.4403   -1.5315   -2.8632 C   0  0  0  0  0  0  0  0  0  0  0  0
    7.3539    0.8375   -5.0096 C   0  0  0  0  0  0  0  0  0  0  0  0
    9.7914    0.5709   -8.0103 H   0  0  0  0  0  0  0  0  0  0  0  0
    8.0924    0.2756   -7.6199 H   0  0  0  0  0  0  0  0  0  0  0  0
    9.4046   -0.3351   -6.5435 H   0  0  0  0  0  0  0  0  0  0  0  0
    6.3942    4.4696   -4.0741 H   0  0  0  0  0  0  0  0  0  0  0  0
    4.5957    0.0391   -3.5966 H   0  0  0  0  0  0  0  0  0  0  0  0
    4.2213   -2.3287   -3.6029 H   0  0  0  0  0  0  0  0  0  0  0  0
    7.4547   -4.9123   -2.4686 H   0  0  0  0  0  0  0  0  0  0  0  0
    9.9949   -2.7242   -3.1418 H   0  0  0  0  0  0  0  0  0  0  0  0
    9.6402   -4.0301   -2.0082 H   0  0  0  0  0  0  0  0  0  0  0  0
    8.4287   -2.8948    0.0900 H   0  0  0  0  0  0  0  0  0  0  0  0
   10.1379    0.3454    0.2265 H   0  0  0  0  0  0  0  0  0  0  0  0
   10.2423    0.6462    4.3094 H   0  0  0  0  0  0  0  0  0  0  0  0
    9.5782   -1.2490    5.8035 H   0  0  0  0  0  0  0  0  0  0  0  0
    8.7842   -3.5666    6.0687 H   0  0  0  0  0  0  0  0  0  0  0  0
    8.2586   -4.9375    4.0715 H   0  0  0  0  0  0  0  0  0  0  0  0
    8.5146   -4.0114    1.8338 H   0  0  0  0  0  0  0  0  0  0  0  0
    8.1044   -0.6702   -2.7835 H   0  0  0  0  0  0  0  0  0  0  0  0
    7.6125   -0.1860   -5.2593 H   0  0  0  0  0  0  0  0  0  0  0  0
  1  2  1  0  0  0  0
  1 33  1  0  0  0  0
  1 34  1  0  0  0  0
  1 35  1  0  0  0  0
  2  3  1  0  0  0  0
  3  4  2  0  0  0  0
  3 32  1  0  0  0  0
  4  5  1  0  0  0  0
  4  6  1  0  0  0  0
  6  7  2  0  0  0  0
  6 36  1  0  0  0  0
  7  8  1  0  0  0  0
  7  9  1  0  0  0  0
  9 10  1  0  0  0  0
  9 32  2  0  0  0  0
 10 11  1  0  0  0  0
 10 37  1  0  0  0  0
 11 12  2  0  0  0  0
 11 31  1  0  0  0  0
 12 13  1  0  0  0  0
 12 38  1  0  0  0  0
 13 14  1  0  0  0  0
 13 15  2  0  0  0  0
 15 16  1  0  0  0  0
 15 39  1  0  0  0  0
 16 17  1  0  0  0  0
 16 31  2  0  0  0  0
 17 18  1  0  0  0  0
 17 40  1  0  0  0  0
 17 41  1  0  0  0  0
 18 19  2  0  0  0  0
 18 20  1  0  0  0  0
 20 21  1  0  0  0  0
 20 42  1  0  0  0  0
 21 22  2  0  0  0  0
 21 30  1  0  0  0  0
 22 23  1  0  0  0  0
 22 43  1  0  0  0  0
 23 24  2  0  0  0  0
 24 25  1  0  0  0  0
 24 44  1  0  0  0  0
 25 26  2  0  0  0  0
 25 30  1  0  0  0  0
 26 27  1  0  0  0  0
 26 45  1  0  0  0  0
 27 28  2  0  0  0  0
 27 46  1  0  0  0  0
 28 29  1  0  0  0  0
 28 47  1  0  0  0  0
 29 30  2  0  0  0  0
 29 48  1  0  0  0  0
 31 49  1  0  0  0  0
 32 50  1  0  0  0  0
M  END
$$$$
