
 OpenBabel07202414123D

 61 64  0  0  1  0  0  0  0  0999 V2000
    5.4929    4.8576   -7.7819 C   0  0  0  0  0  0  0  0  0  0  0  0
    5.2704    5.4164   -6.3710 C   0  0  0  0  0  0  0  0  0  0  0  0
    6.5541    6.0022   -5.7690 C   0  0  0  0  0  0  0  0  0  0  0  0
    4.2305    6.5463   -6.4643 C   0  0  0  0  0  0  0  0  0  0  0  0
    4.6872    4.4085   -5.5012 O   0  0  0  0  0  0  0  0  0  0  0  0
    5.3776    3.2613   -5.2247 C   0  0  0  0  0  0  0  0  0  0  0  0
    6.4948    2.9944   -5.6533 O   0  0  0  0  0  0  0  0  0  0  0  0
    4.5610    2.3372   -4.3057 C   0  0  1  0  0  0  0  0  0  0  0  0
    4.9337    0.8659   -4.5268 C   0  0  0  0  0  0  0  0  0  0  0  0
    6.1413    0.6560   -3.6247 C   0  0  0  0  0  0  0  0  0  0  0  0
    5.8869    1.5693   -2.4270 C   0  0  0  0  0  0  0  0  0  0  0  0
    4.8939    2.5485   -2.8808 N   0  0  0  0  0  0  0  0  0  0  0  0
    4.1704    3.3512   -2.0269 C   0  0  0  0  0  0  0  0  0  0  0  0
    4.3707    3.3383   -0.6382 C   0  0  0  0  0  0  0  0  0  0  0  0
    3.6131    4.1402    0.2220 C   0  0  0  0  0  0  0  0  0  0  0  0
    3.8848    4.0624    1.9216 Cl  0  0  0  0  0  0  0  0  0  0  0  0
    2.6396    4.9996   -0.2752 C   0  0  0  0  0  0  0  0  0  0  0  0
    2.4207    5.0582   -1.6512 C   0  0  0  0  0  0  0  0  0  0  0  0
    1.4132    6.0158   -2.2409 C   0  0  0  0  0  0  0  0  0  0  0  0
    0.3848    5.3721   -3.1579 C   0  0  0  0  0  0  0  0  0  0  0  0
    0.0900    5.8865   -4.2345 O   0  0  0  0  0  0  0  0  0  0  0  0
   -0.2437    4.2607   -2.6256 N   0  0  0  0  0  0  0  0  0  0  0  0
   -1.2689    3.5530   -3.2990 C   0  0  0  0  0  0  0  0  0  0  0  0
   -1.1933    3.2923   -4.6655 C   0  0  0  0  0  0  0  0  0  0  0  0
   -2.1073    2.5716   -5.3590 N   0  0  0  0  0  0  0  0  0  0  0  0
   -3.1693    2.1261   -4.6614 C   0  0  0  0  0  0  0  0  0  0  0  0
   -3.3770    2.3494   -3.2963 C   0  0  0  0  0  0  0  0  0  0  0  0
   -4.5418    1.9045   -2.6451 C   0  0  0  0  0  0  0  0  0  0  0  0
   -4.7585    2.1925   -1.3006 C   0  0  0  0  0  0  0  0  0  0  0  0
   -3.8110    2.9171   -0.5862 C   0  0  0  0  0  0  0  0  0  0  0  0
   -2.6427    3.3468   -1.2175 C   0  0  0  0  0  0  0  0  0  0  0  0
   -2.3906    3.0723   -2.5817 C   0  0  0  0  0  0  0  0  0  0  0  0
    3.1933    4.2432   -2.4999 C   0  0  0  0  0  0  0  0  0  0  0  0
    5.8412    5.6355   -8.4695 H   0  0  0  0  0  0  0  0  0  0  0  0
    4.5629    4.4342   -8.1786 H   0  0  0  0  0  0  0  0  0  0  0  0
    6.2319    4.0521   -7.7978 H   0  0  0  0  0  0  0  0  0  0  0  0
    6.9563    6.8051   -6.3964 H   0  0  0  0  0  0  0  0  0  0  0  0
    7.3407    5.2522   -5.6524 H   0  0  0  0  0  0  0  0  0  0  0  0
    6.3617    6.4088   -4.7693 H   0  0  0  0  0  0  0  0  0  0  0  0
    4.5771    7.3571   -7.1155 H   0  0  0  0  0  0  0  0  0  0  0  0
    4.0162    6.9684   -5.4758 H   0  0  0  0  0  0  0  0  0  0  0  0
    3.2777    6.1738   -6.8572 H   0  0  0  0  0  0  0  0  0  0  0  0
    3.4947    2.4451   -4.5361 H   0  0  0  0  0  0  0  0  0  0  0  0
    5.1500    0.6218   -5.5715 H   0  0  0  0  0  0  0  0  0  0  0  0
    4.1130    0.2209   -4.1885 H   0  0  0  0  0  0  0  0  0  0  0  0
    7.0646    0.9473   -4.1373 H   0  0  0  0  0  0  0  0  0  0  0  0
    6.2517   -0.3907   -3.3234 H   0  0  0  0  0  0  0  0  0  0  0  0
    6.8131    2.0684   -2.1200 H   0  0  0  0  0  0  0  0  0  0  0  0
    5.5097    0.9692   -1.5920 H   0  0  0  0  0  0  0  0  0  0  0  0
    5.1251    2.6945   -0.1957 H   0  0  0  0  0  0  0  0  0  0  0  0
    2.0713    5.6260    0.4071 H   0  0  0  0  0  0  0  0  0  0  0  0
    1.9634    6.7657   -2.8224 H   0  0  0  0  0  0  0  0  0  0  0  0
    0.8704    6.5506   -1.4527 H   0  0  0  0  0  0  0  0  0  0  0  0
   -0.1337    4.0972   -1.6331 H   0  0  0  0  0  0  0  0  0  0  0  0
   -0.3468    3.6260   -5.2606 H   0  0  0  0  0  0  0  0  0  0  0  0
   -3.8945    1.5718   -5.2561 H   0  0  0  0  0  0  0  0  0  0  0  0
   -5.3048    1.3530   -3.1933 H   0  0  0  0  0  0  0  0  0  0  0  0
   -5.6746    1.8691   -0.8130 H   0  0  0  0  0  0  0  0  0  0  0  0
   -3.9887    3.1705    0.4555 H   0  0  0  0  0  0  0  0  0  0  0  0
   -1.9483    3.9392   -0.6284 H   0  0  0  0  0  0  0  0  0  0  0  0
    3.0159    4.3345   -3.5689 H   0  0  0  0  0  0  0  0  0  0  0  0
  1  2  1  0  0  0  0
  1 34  1  0  0  0  0
  1 35  1  0  0  0  0
  1 36  1  0  0  0  0
  2  3  1  0  0  0  0
  2  4  1  0  0  0  0
  2  5  1  0  0  0  0
  3 37  1  0  0  0  0
  3 38  1  0  0  0  0
  3 39  1  0  0  0  0
  4 40  1  0  0  0  0
  4 41  1  0  0  0  0
  4 42  1  0  0  0  0
  5  6  1  0  0  0  0
  6  7  2  0  0  0  0
  8  9  1  0  0  0  0
  8 12  1  0  0  0  0
  8  6  1  0  0  0  0
  8 43  1  6  0  0  0
  9 10  1  0  0  0  0
  9 44  1  0  0  0  0
  9 45  1  0  0  0  0
 10 11  1  0  0  0  0
 10 46  1  0  0  0  0
 10 47  1  0  0  0  0
 11 12  1  0  0  0  0
 11 48  1  0  0  0  0
 11 49  1  0  0  0  0
 12 13  1  0  0  0  0
 13 14  1  0  0  0  0
 13 33  2  0  0  0  0
 14 15  2  0  0  0  0
 14 50  1  0  0  0  0
 15 16  1  0  0  0  0
 15 17  1  0  0  0  0
 17 18  2  0  0  0  0
 17 51  1  0  0  0  0
 18 19  1  0  0  0  0
 18 33  1  0  0  0  0
 19 20  1  0  0  0  0
 19 52  1  0  0  0  0
 19 53  1  0  0  0  0
 20 21  2  0  0  0  0
 20 22  1  0  0  0  0
 22 23  1  0  0  0  0
 22 54  1  0  0  0  0
 23 24  1  0  0  0  0
 23 32  2  0  0  0  0
 24 25  2  0  0  0  0
 24 55  1  0  0  0  0
 25 26  1  0  0  0  0
 26 27  2  0  0  0  0
 26 56  1  0  0  0  0
 27 28  1  0  0  0  0
 27 32  1  0  0  0  0
 28 29  2  0  0  0  0
 28 57  1  0  0  0  0
 29 30  1  0  0  0  0
 29 58  1  0  0  0  0
 30 31  2  0  0  0  0
 30 59  1  0  0  0  0
 31 32  1  0  0  0  0
 31 60  1  0  0  0  0
 33 61  1  0  0  0  0
M  END
$$$$
