
 OpenBabel07202414143D

 59 62  0  0  1  0  0  0  0  0999 V2000
    1.0784    0.0456    0.6900 C   0  0  0  0  0  0  0  0  0  0  0  0
    2.4476    0.3897    0.5115 O   0  0  0  0  0  0  0  0  0  0  0  0
    2.7590    1.4533   -0.4267 C   0  0  0  0  0  0  0  0  0  0  0  0
    2.2438    1.0782   -1.8258 C   0  0  0  0  0  0  0  0  0  0  0  0
    2.1123    2.7644    0.0464 C   0  0  0  0  0  0  0  0  0  0  0  0
    4.3091    1.5340   -0.3867 C   0  0  0  0  0  0  0  0  0  0  0  0
    5.0066    2.8422   -1.3956 S   0  0  0  0  0  0  0  0  0  0  0  0
    4.6497    2.6056   -2.7793 O   0  0  0  0  0  0  0  0  0  0  0  0
    4.7628    4.1210   -0.7691 O   0  0  0  0  0  0  0  0  0  0  0  0
    6.7128    2.5920   -1.3312 N   0  0  0  0  0  0  0  0  0  0  0  0
    7.3432    2.8647    0.0066 C   0  0  0  0  0  0  0  0  0  0  0  0
    8.8526    2.5527   -0.0142 C   0  0  3  0  0  0  0  0  0  0  0  0
    9.1410    1.0474    0.0575 C   0  0  0  0  0  0  0  0  0  0  0  0
   10.1033    0.6258    0.6951 O   0  0  0  0  0  0  0  0  0  0  0  0
    8.2879    0.2671   -0.6904 N   0  0  0  0  0  0  0  0  0  0  0  0
    8.1108   -1.1339   -0.6328 C   0  0  0  0  0  0  0  0  0  0  0  0
    7.7887   -1.7593   -1.8424 C   0  0  0  0  0  0  0  0  0  0  0  0
    7.4414   -3.0551   -1.9835 N   0  0  0  0  0  0  0  0  0  0  0  0
    7.4245   -3.7853   -0.8504 C   0  0  0  0  0  0  0  0  0  0  0  0
    7.7613   -3.3032    0.4155 C   0  0  0  0  0  0  0  0  0  0  0  0
    7.7286   -4.1596    1.5324 C   0  0  0  0  0  0  0  0  0  0  0  0
    8.0315   -3.6859    2.8045 C   0  0  0  0  0  0  0  0  0  0  0  0
    8.3364   -2.3448    2.9757 C   0  0  0  0  0  0  0  0  0  0  0  0
    8.3557   -1.4833    1.8723 C   0  0  0  0  0  0  0  0  0  0  0  0
    8.1096   -1.9334    0.5475 C   0  0  0  0  0  0  0  0  0  0  0  0
    9.5602    3.2209   -1.1728 C   0  0  0  0  0  0  0  0  0  0  0  0
   10.9391    3.4823   -1.1114 C   0  0  0  0  0  0  0  0  0  0  0  0
   11.5835    4.1197   -2.1746 C   0  0  0  0  0  0  0  0  0  0  0  0
   13.2623    4.4762   -2.0706 Cl  0  0  0  0  0  0  0  0  0  0  0  0
   10.8727    4.4848   -3.3117 C   0  0  0  0  0  0  0  0  0  0  0  0
    9.5061    4.2254   -3.3833 C   0  0  0  0  0  0  0  0  0  0  0  0
    8.8392    3.5979   -2.3167 C   0  0  0  0  0  0  0  0  0  0  0  0
    7.3425    3.4367   -2.4061 C   0  0  0  0  0  0  0  0  0  0  0  0
    1.0256   -0.7609    1.4262 H   0  0  0  0  0  0  0  0  0  0  0  0
    0.6311   -0.3296   -0.2339 H   0  0  0  0  0  0  0  0  0  0  0  0
    0.4971    0.8851    1.0815 H   0  0  0  0  0  0  0  0  0  0  0  0
    1.1609    0.9279   -1.8344 H   0  0  0  0  0  0  0  0  0  0  0  0
    2.6972    0.1419   -2.1683 H   0  0  0  0  0  0  0  0  0  0  0  0
    2.4348    1.8584   -2.5651 H   0  0  0  0  0  0  0  0  0  0  0  0
    1.0204    2.6930    0.0730 H   0  0  0  0  0  0  0  0  0  0  0  0
    2.3412    3.6037   -0.6144 H   0  0  0  0  0  0  0  0  0  0  0  0
    2.4376    3.0130    1.0630 H   0  0  0  0  0  0  0  0  0  0  0  0
    4.7470    0.5875   -0.7217 H   0  0  0  0  0  0  0  0  0  0  0  0
    4.6415    1.7057    0.6430 H   0  0  0  0  0  0  0  0  0  0  0  0
    6.8561    2.2507    0.7718 H   0  0  0  0  0  0  0  0  0  0  0  0
    7.1943    3.9196    0.2680 H   0  0  0  0  0  0  0  0  0  0  0  0
    9.2540    2.9720    0.9193 H   0  0  0  0  0  0  0  0  0  0  0  0
    7.8601    0.7432   -1.4843 H   0  0  0  0  0  0  0  0  0  0  0  0
    7.8255   -1.2119   -2.7810 H   0  0  0  0  0  0  0  0  0  0  0  0
    7.1031   -4.8150   -0.9913 H   0  0  0  0  0  0  0  0  0  0  0  0
    7.4665   -5.2096    1.4155 H   0  0  0  0  0  0  0  0  0  0  0  0
    8.0219   -4.3586    3.6579 H   0  0  0  0  0  0  0  0  0  0  0  0
    8.5648   -1.9580    3.9659 H   0  0  0  0  0  0  0  0  0  0  0  0
    8.5808   -0.4429    2.0766 H   0  0  0  0  0  0  0  0  0  0  0  0
   11.5113    3.2014   -0.2287 H   0  0  0  0  0  0  0  0  0  0  0  0
   11.3718    4.9804   -4.1403 H   0  0  0  0  0  0  0  0  0  0  0  0
    8.9538    4.5324   -4.2704 H   0  0  0  0  0  0  0  0  0  0  0  0
    7.1164    2.9679   -3.3714 H   0  0  0  0  0  0  0  0  0  0  0  0
    6.9098    4.4451   -2.3842 H   0  0  0  0  0  0  0  0  0  0  0  0
  1  2  1  0  0  0  0
  1 34  1  0  0  0  0
  1 35  1  0  0  0  0
  1 36  1  0  0  0  0
  2  3  1  0  0  0  0
  3  4  1  0  0  0  0
  3  5  1  0  0  0  0
  3  6  1  0  0  0  0
  4 37  1  0  0  0  0
  4 38  1  0  0  0  0
  4 39  1  0  0  0  0
  5 40  1  0  0  0  0
  5 41  1  0  0  0  0
  5 42  1  0  0  0  0
  6  7  1  0  0  0  0
  6 43  1  0  0  0  0
  6 44  1  0  0  0  0
  7  8  2  0  0  0  0
  7  9  2  0  0  0  0
  7 10  1  0  0  0  0
 10 11  1  0  0  0  0
 10 33  1  0  0  0  0
 11 12  1  0  0  0  0
 11 45  1  0  0  0  0
 11 46  1  0  0  0  0
 12 13  1  0  0  0  0
 12 26  1  0  0  0  0
 12 47  1  0  0  0  0
 13 14  2  0  0  0  0
 13 15  1  0  0  0  0
 15 16  1  0  0  0  0
 15 48  1  0  0  0  0
 16 17  1  0  0  0  0
 16 25  2  0  0  0  0
 17 18  2  0  0  0  0
 17 49  1  0  0  0  0
 18 19  1  0  0  0  0
 19 20  2  0  0  0  0
 19 50  1  0  0  0  0
 20 21  1  0  0  0  0
 20 25  1  0  0  0  0
 21 22  2  0  0  0  0
 21 51  1  0  0  0  0
 22 23  1  0  0  0  0
 22 52  1  0  0  0  0
 23 24  2  0  0  0  0
 23 53  1  0  0  0  0
 24 25  1  0  0  0  0
 24 54  1  0  0  0  0
 26 27  1  0  0  0  0
 26 32  2  0  0  0  0
 27 28  2  0  0  0  0
 27 55  1  0  0  0  0
 28 29  1  0  0  0  0
 28 30  1  0  0  0  0
 30 31  2  0  0  0  0
 30 56  1  0  0  0  0
 31 32  1  0  0  0  0
 31 57  1  0  0  0  0
 32 33  1  0  0  0  0
 33 58  1  0  0  0  0
 33 59  1  0  0  0  0
M  END
$$$$
