
 OpenBabel07202414193D

 45 49  0  0  1  0  0  0  0  0999 V2000
    1.2550   -0.1147    0.4569 N   0  0  0  0  0  0  0  0  0  0  0  0
    2.5198    0.0217   -0.0444 C   0  0  0  0  0  0  0  0  0  0  0  0
    3.0539   -0.8906   -0.6647 O   0  0  0  0  0  0  0  0  0  0  0  0
    3.1966    1.3314    0.1508 C   0  0  0  0  0  0  0  0  0  0  0  0
    2.9145    2.1600    1.2382 C   0  0  0  0  0  0  0  0  0  0  0  0
    3.6183    3.3597    1.3951 C   0  0  0  0  0  0  0  0  0  0  0  0
    4.5985    3.7354    0.4714 C   0  0  0  0  0  0  0  0  0  0  0  0
    4.9092    2.9074   -0.6105 C   0  0  0  0  0  0  0  0  0  0  0  0
    4.1796    1.7128   -0.7688 C   0  0  0  0  0  0  0  0  0  0  0  0
    6.0364    3.2658   -1.5467 C   0  0  1  0  0  0  0  0  0  0  0  0
    6.9128    4.3790   -0.9712 C   0  0  0  0  0  0  0  0  0  0  0  0
    6.0401    5.4339   -0.3144 C   0  0  0  0  0  0  0  0  0  0  0  0
    5.2610    4.8966    0.7547 O   0  0  0  0  0  0  0  0  0  0  0  0
    6.8497    2.1068   -1.8190 N   0  0  0  0  0  0  0  0  0  0  0  0
    6.7099    1.6732   -3.1149 C   0  0  0  0  0  0  0  0  0  0  0  0
    7.0934    0.5638   -3.4443 O   0  0  0  0  0  0  0  0  0  0  0  0
    6.0893    2.6504   -3.8563 N   0  0  0  0  0  0  0  0  0  0  0  0
    5.8827    2.5646   -5.2719 C   0  0  0  0  0  0  0  0  0  0  0  0
    5.7485    1.2980   -5.8643 C   0  0  0  0  0  0  0  0  0  0  0  0
    5.5474    1.0546   -7.1801 N   0  0  0  0  0  0  0  0  0  0  0  0
    5.5845    2.1208   -7.9929 C   0  0  0  0  0  0  0  0  0  0  0  0
    5.8447    3.4172   -7.5669 C   0  0  0  0  0  0  0  0  0  0  0  0
    6.0818    4.4147   -8.5283 C   0  0  0  0  0  0  0  0  0  0  0  0
    6.4026    5.7088   -8.1426 C   0  0  0  0  0  0  0  0  0  0  0  0
    6.4065    6.0312   -6.7951 C   0  0  0  0  0  0  0  0  0  0  0  0
    6.1738    5.0409   -5.8304 C   0  0  0  0  0  0  0  0  0  0  0  0
    5.9345    3.6827   -6.1712 C   0  0  0  0  0  0  0  0  0  0  0  0
    5.5601    3.5926   -2.9911 C   0  0  0  0  0  0  0  0  0  0  0  0
    4.7855    4.5018   -3.2552 O   0  0  0  0  0  0  0  0  0  0  0  0
    0.7698   -0.9683    0.2220 H   0  0  0  0  0  0  0  0  0  0  0  0
    0.7004    0.6766    0.7545 H   0  0  0  0  0  0  0  0  0  0  0  0
    2.1915    1.8743    1.9977 H   0  0  0  0  0  0  0  0  0  0  0  0
    3.4144    4.0010    2.2518 H   0  0  0  0  0  0  0  0  0  0  0  0
    4.3957    1.0313   -1.5921 H   0  0  0  0  0  0  0  0  0  0  0  0
    7.5492    4.8354   -1.7385 H   0  0  0  0  0  0  0  0  0  0  0  0
    7.5827    3.9610   -0.2047 H   0  0  0  0  0  0  0  0  0  0  0  0
    5.3793    5.9345   -1.0302 H   0  0  0  0  0  0  0  0  0  0  0  0
    6.6823    6.2076    0.1225 H   0  0  0  0  0  0  0  0  0  0  0  0
    7.1306    1.4354   -1.1144 H   0  0  0  0  0  0  0  0  0  0  0  0
    5.7826    0.3785   -5.2863 H   0  0  0  0  0  0  0  0  0  0  0  0
    5.4253    1.8880   -9.0434 H   0  0  0  0  0  0  0  0  0  0  0  0
    6.0776    4.1717   -9.5899 H   0  0  0  0  0  0  0  0  0  0  0  0
    6.6549    6.4563   -8.8899 H   0  0  0  0  0  0  0  0  0  0  0  0
    6.6189    7.0507   -6.4829 H   0  0  0  0  0  0  0  0  0  0  0  0
    6.2189    5.3657   -4.7978 H   0  0  0  0  0  0  0  0  0  0  0  0
  1  2  1  0  0  0  0
  1 30  1  0  0  0  0
  1 31  1  0  0  0  0
  2  3  2  0  0  0  0
  2  4  1  0  0  0  0
  4  5  1  0  0  0  0
  4  9  2  0  0  0  0
  5  6  2  0  0  0  0
  5 32  1  0  0  0  0
  6  7  1  0  0  0  0
  6 33  1  0  0  0  0
  7  8  2  0  0  0  0
  7 13  1  0  0  0  0
  8  9  1  0  0  0  0
  9 34  1  0  0  0  0
 10  8  1  1  0  0  0
 10 11  1  0  0  0  0
 10 14  1  0  0  0  0
 10 28  1  0  0  0  0
 11 12  1  0  0  0  0
 11 35  1  0  0  0  0
 11 36  1  0  0  0  0
 12 13  1  0  0  0  0
 12 37  1  0  0  0  0
 12 38  1  0  0  0  0
 14 15  1  0  0  0  0
 14 39  1  0  0  0  0
 15 16  2  0  0  0  0
 15 17  1  0  0  0  0
 17 18  1  0  0  0  0
 17 28  1  0  0  0  0
 18 19  1  0  0  0  0
 18 27  2  0  0  0  0
 19 20  2  0  0  0  0
 19 40  1  0  0  0  0
 20 21  1  0  0  0  0
 21 22  2  0  0  0  0
 21 41  1  0  0  0  0
 22 23  1  0  0  0  0
 22 27  1  0  0  0  0
 23 24  2  0  0  0  0
 23 42  1  0  0  0  0
 24 25  1  0  0  0  0
 24 43  1  0  0  0  0
 25 26  2  0  0  0  0
 25 44  1  0  0  0  0
 26 27  1  0  0  0  0
 26 45  1  0  0  0  0
 28 29  2  0  0  0  0
M  END
$$$$
