
 OpenBabel07202414183D

 60 64  0  0  1  0  0  0  0  0999 V2000
   -2.4434   -1.1377   -1.5028 C   0  0  0  0  0  0  0  0  0  0  0  0
   -1.3050   -1.4439   -0.6708 N   0  0  0  0  0  0  0  0  0  0  0  0
   -1.4470   -2.3323    0.3349 N   0  0  0  0  0  0  0  0  0  0  0  0
   -0.2306   -2.3794    0.8819 C   0  0  0  0  0  0  0  0  0  0  0  0
    0.6869   -1.5155    0.2454 C   0  0  0  0  0  0  0  0  0  0  0  0
    2.0343   -1.1487    0.4435 C   0  0  0  0  0  0  0  0  0  0  0  0
    2.6524   -0.1613   -0.3577 C   0  0  0  0  0  0  0  0  0  0  0  0
    3.9633    0.3713    0.0170 N   0  0  0  0  0  0  0  0  0  0  0  0
    4.3500    1.7854   -0.3057 C   0  0  3  0  0  0  0  0  0  0  0  0
    5.1341    1.7952   -1.6698 C   0  0  0  0  0  0  0  0  0  0  0  0
    4.7159    1.2493   -2.6891 O   0  0  0  0  0  0  0  0  0  0  0  0
    6.3131    2.5307   -1.6733 N   0  0  0  0  0  0  0  0  0  0  0  0
    7.0188    2.8619   -2.9060 C   0  0  0  0  0  0  0  0  0  0  0  0
    8.5357    2.9091   -2.7067 C   0  0  0  0  0  0  0  0  0  0  0  0
    9.2870    3.2647   -3.9701 C   0  0  0  0  0  0  0  0  0  0  0  0
    9.7068    2.2538   -4.8531 C   0  0  0  0  0  0  0  0  0  0  0  0
   10.4165    2.5708   -6.0169 C   0  0  0  0  0  0  0  0  0  0  0  0
   10.7083    3.9001   -6.3149 C   0  0  0  0  0  0  0  0  0  0  0  0
   10.2836    4.9014   -5.4471 C   0  0  0  0  0  0  0  0  0  0  0  0
   10.5630    6.1798   -5.7334 F   0  0  0  0  0  0  0  0  0  0  0  0
    9.5759    4.6015   -4.2788 C   0  0  0  0  0  0  0  0  0  0  0  0
    3.3109    2.9240   -0.2750 C   0  0  0  0  0  0  0  0  0  0  0  0
    3.6492    4.1953   -0.7796 C   0  0  0  0  0  0  0  0  0  0  0  0
    2.6996    5.2086   -0.8780 C   0  0  0  0  0  0  0  0  0  0  0  0
    1.4234    4.9432   -0.4329 C   0  0  0  0  0  0  0  0  0  0  0  0
    1.0820    3.7926    0.1767 N   0  0  0  0  0  0  0  0  0  0  0  0
    2.0372    2.8323    0.2746 C   0  0  0  0  0  0  0  0  0  0  0  0
    4.9143   -0.5371    0.5881 C   0  0  0  0  0  0  0  0  0  0  0  0
    4.6834   -1.7435    0.7001 O   0  0  0  0  0  0  0  0  0  0  0  0
    6.2361   -0.0931    1.0787 C   0  0  0  0  0  0  0  0  0  0  0  0
    7.0913   -0.9308    1.7731 C   0  0  0  0  0  0  0  0  0  0  0  0
    8.2218   -0.2497    2.0900 O   0  0  0  0  0  0  0  0  0  0  0  0
    8.0102    0.9820    1.5613 C   0  0  0  0  0  0  0  0  0  0  0  0
    6.8585    1.1411    0.9472 N   0  0  0  0  0  0  0  0  0  0  0  0
    1.8967    0.3567   -1.4230 C   0  0  0  0  0  0  0  0  0  0  0  0
    0.5471    0.0085   -1.6447 C   0  0  0  0  0  0  0  0  0  0  0  0
   -0.0377   -0.9187   -0.7769 C   0  0  0  0  0  0  0  0  0  0  0  0
   -3.3180   -1.6885   -1.1431 H   0  0  0  0  0  0  0  0  0  0  0  0
   -2.2121   -1.4415   -2.5260 H   0  0  0  0  0  0  0  0  0  0  0  0
   -2.6386   -0.0642   -1.4487 H   0  0  0  0  0  0  0  0  0  0  0  0
   -0.0627   -3.0271    1.7323 H   0  0  0  0  0  0  0  0  0  0  0  0
    2.5380   -1.6091    1.2863 H   0  0  0  0  0  0  0  0  0  0  0  0
    5.0159    2.1126    0.4894 H   0  0  0  0  0  0  0  0  0  0  0  0
    6.6046    2.9745   -0.8101 H   0  0  0  0  0  0  0  0  0  0  0  0
    6.6475    3.8444   -3.2244 H   0  0  0  0  0  0  0  0  0  0  0  0
    6.7541    2.1466   -3.6913 H   0  0  0  0  0  0  0  0  0  0  0  0
    8.8899    1.9423   -2.3307 H   0  0  0  0  0  0  0  0  0  0  0  0
    8.7872    3.6361   -1.9220 H   0  0  0  0  0  0  0  0  0  0  0  0
    9.4898    1.2082   -4.6383 H   0  0  0  0  0  0  0  0  0  0  0  0
   10.7418    1.7796   -6.6896 H   0  0  0  0  0  0  0  0  0  0  0  0
   11.2615    4.1621   -7.2122 H   0  0  0  0  0  0  0  0  0  0  0  0
    9.2688    5.4100   -3.6336 H   0  0  0  0  0  0  0  0  0  0  0  0
    4.6541    4.4207   -1.1246 H   0  0  0  0  0  0  0  0  0  0  0  0
    2.9507    6.1714   -1.3089 H   0  0  0  0  0  0  0  0  0  0  0  0
    0.6245    5.6697   -0.5466 H   0  0  0  0  0  0  0  0  0  0  0  0
    1.6926    1.9499    0.8052 H   0  0  0  0  0  0  0  0  0  0  0  0
    7.0333   -1.9632    2.0987 H   0  0  0  0  0  0  0  0  0  0  0  0
    8.8062    1.7028    1.6984 H   0  0  0  0  0  0  0  0  0  0  0  0
    2.3225    1.0874   -2.1063 H   0  0  0  0  0  0  0  0  0  0  0  0
   -0.0181    0.4802   -2.4428 H   0  0  0  0  0  0  0  0  0  0  0  0
  1  2  1  0  0  0  0
  1 38  1  0  0  0  0
  1 39  1  0  0  0  0
  1 40  1  0  0  0  0
  2  3  1  0  0  0  0
  2 37  1  0  0  0  0
  3  4  2  0  0  0  0
  4  5  1  0  0  0  0
  4 41  1  0  0  0  0
  5  6  1  0  0  0  0
  5 37  2  0  0  0  0
  6  7  2  0  0  0  0
  6 42  1  0  0  0  0
  7  8  1  0  0  0  0
  7 35  1  0  0  0  0
  8  9  1  0  0  0  0
  8 28  1  0  0  0  0
  9 10  1  0  0  0  0
  9 22  1  0  0  0  0
  9 43  1  0  0  0  0
 10 11  2  0  0  0  0
 10 12  1  0  0  0  0
 12 13  1  0  0  0  0
 12 44  1  0  0  0  0
 13 14  1  0  0  0  0
 13 45  1  0  0  0  0
 13 46  1  0  0  0  0
 14 15  1  0  0  0  0
 14 47  1  0  0  0  0
 14 48  1  0  0  0  0
 15 16  1  0  0  0  0
 15 21  2  0  0  0  0
 16 17  2  0  0  0  0
 16 49  1  0  0  0  0
 17 18  1  0  0  0  0
 17 50  1  0  0  0  0
 18 19  2  0  0  0  0
 18 51  1  0  0  0  0
 19 20  1  0  0  0  0
 19 21  1  0  0  0  0
 21 52  1  0  0  0  0
 22 23  1  0  0  0  0
 22 27  2  0  0  0  0
 23 24  2  0  0  0  0
 23 53  1  0  0  0  0
 24 25  1  0  0  0  0
 24 54  1  0  0  0  0
 25 26  2  0  0  0  0
 25 55  1  0  0  0  0
 26 27  1  0  0  0  0
 27 56  1  0  0  0  0
 28 29  2  0  0  0  0
 28 30  1  0  0  0  0
 30 31  2  0  0  0  0
 30 34  1  0  0  0  0
 31 32  1  0  0  0  0
 31 57  1  0  0  0  0
 32 33  1  0  0  0  0
 33 34  2  0  0  0  0
 33 58  1  0  0  0  0
 35 36  2  0  0  0  0
 35 59  1  0  0  0  0
 36 37  1  0  0  0  0
 36 60  1  0  0  0  0
M  END
$$$$
