
 OpenBabel07202414173D

 38 41  0  0  1  0  0  0  0  0999 V2000
    1.0552    0.0569    0.0071 Cl  0  0  0  0  0  0  0  0  0  0  0  0
    2.7707   -0.0172    0.1162 C   0  0  0  0  0  0  0  0  0  0  0  0
    3.5229    1.1460    0.0054 C   0  0  0  0  0  0  0  0  0  0  0  0
    4.9144    1.0738    0.0720 C   0  0  0  0  0  0  0  0  0  0  0  0
    5.5421   -0.1519    0.2999 C   0  0  0  0  0  0  0  0  0  0  0  0
    4.7886   -1.3193    0.4631 C   0  0  0  0  0  0  0  0  0  0  0  0
    3.3929   -1.2471    0.3296 C   0  0  0  0  0  0  0  0  0  0  0  0
    5.4567   -2.6398    0.7754 C   0  0  3  0  0  0  0  0  0  0  0  0
    5.4242   -2.9721    2.2670 C   0  0  0  0  0  0  0  0  0  0  0  0
    6.4335   -3.1606    2.9648 O   0  0  0  0  0  0  0  0  0  0  0  0
    4.1111   -3.0740    2.7346 O   0  0  0  0  0  0  0  0  0  0  0  0
    3.7670   -3.4101    4.0649 C   0  0  0  0  0  0  0  0  0  0  0  0
    4.5349   -4.2514    4.8762 C   0  0  0  0  0  0  0  0  0  0  0  0
    4.0595   -4.8040    6.0120 N   0  0  0  0  0  0  0  0  0  0  0  0
    2.8332   -4.4000    6.4195 C   0  0  0  0  0  0  0  0  0  0  0  0
    2.1211   -3.3497    5.8424 C   0  0  0  0  0  0  0  0  0  0  0  0
    1.0136   -2.7393    6.4781 C   0  0  0  0  0  0  0  0  0  0  0  0
    0.3007   -1.7276    5.8289 C   0  0  0  0  0  0  0  0  0  0  0  0
    0.6517   -1.3647    4.5353 C   0  0  0  0  0  0  0  0  0  0  0  0
    1.7616   -1.9520    3.9158 C   0  0  0  0  0  0  0  0  0  0  0  0
    2.5513   -2.9006    4.5825 C   0  0  0  0  0  0  0  0  0  0  0  0
    6.8860   -2.5758    0.2220 C   0  0  0  0  0  0  0  0  0  0  0  0
    7.5730   -1.3086    0.7133 C   0  0  0  0  0  0  0  0  0  0  0  0
    6.9089   -0.1180    0.2890 O   0  0  0  0  0  0  0  0  0  0  0  0
    3.0400    2.1086   -0.1412 H   0  0  0  0  0  0  0  0  0  0  0  0
    5.5112    1.9748   -0.0467 H   0  0  0  0  0  0  0  0  0  0  0  0
    2.7893   -2.1494    0.3982 H   0  0  0  0  0  0  0  0  0  0  0  0
    4.9402   -3.4529    0.2498 H   0  0  0  0  0  0  0  0  0  0  0  0
    5.5514   -4.5362    4.6322 H   0  0  0  0  0  0  0  0  0  0  0  0
    2.3982   -5.0013    7.2131 H   0  0  0  0  0  0  0  0  0  0  0  0
    0.7410   -3.0073    7.4934 H   0  0  0  0  0  0  0  0  0  0  0  0
   -0.5244   -1.2313    6.3314 H   0  0  0  0  0  0  0  0  0  0  0  0
    0.0787   -0.6045    4.0087 H   0  0  0  0  0  0  0  0  0  0  0  0
    2.0243   -1.6231    2.9137 H   0  0  0  0  0  0  0  0  0  0  0  0
    6.8397   -2.5432   -0.8736 H   0  0  0  0  0  0  0  0  0  0  0  0
    7.4692   -3.4606    0.4997 H   0  0  0  0  0  0  0  0  0  0  0  0
    8.5891   -1.2684    0.3056 H   0  0  0  0  0  0  0  0  0  0  0  0
    7.6681   -1.2798    1.8039 H   0  0  0  0  0  0  0  0  0  0  0  0
  1  2  1  0  0  0  0
  2  3  1  0  0  0  0
  2  7  2  0  0  0  0
  3  4  2  0  0  0  0
  3 25  1  0  0  0  0
  4  5  1  0  0  0  0
  4 26  1  0  0  0  0
  5  6  2  0  0  0  0
  5 24  1  0  0  0  0
  6  7  1  0  0  0  0
  6  8  1  0  0  0  0
  7 27  1  0  0  0  0
  8  9  1  0  0  0  0
  8 22  1  0  0  0  0
  8 28  1  0  0  0  0
  9 10  2  0  0  0  0
  9 11  1  0  0  0  0
 11 12  1  0  0  0  0
 12 13  1  0  0  0  0
 12 21  2  0  0  0  0
 13 14  2  0  0  0  0
 13 29  1  0  0  0  0
 14 15  1  0  0  0  0
 15 16  2  0  0  0  0
 15 30  1  0  0  0  0
 16 17  1  0  0  0  0
 16 21  1  0  0  0  0
 17 18  2  0  0  0  0
 17 31  1  0  0  0  0
 18 19  1  0  0  0  0
 18 32  1  0  0  0  0
 19 20  2  0  0  0  0
 19 33  1  0  0  0  0
 20 21  1  0  0  0  0
 20 34  1  0  0  0  0
 22 23  1  0  0  0  0
 22 35  1  0  0  0  0
 22 36  1  0  0  0  0
 23 24  1  0  0  0  0
 23 37  1  0  0  0  0
 23 38  1  0  0  0  0
M  END
$$$$
