
 OpenBabel07202414143D

 62 67  0  0  1  0  0  0  0  0999 V2000
    1.2880    0.8960   -3.7432 C   0  0  0  0  0  0  0  0  0  0  0  0
    2.6456    0.6955   -3.2561 N   0  0  0  0  0  0  0  0  0  0  0  0
    3.0827    1.7811   -2.3255 C   0  0  0  0  0  0  0  0  0  0  0  0
    4.3796    2.3121   -2.9787 C   0  0  2  0  0  0  0  0  0  0  0  0
    3.9940    2.2382   -4.4522 C   0  0  0  0  0  0  0  0  0  0  0  0
    3.6520    0.7491   -4.3596 C   0  0  1  0  0  0  0  0  0  0  0  0
    4.9871    0.1912   -3.8123 C   0  0  0  0  0  0  0  0  0  0  0  0
    5.3956    1.2564   -2.9015 N   0  0  0  0  0  0  0  0  0  0  0  0
    6.5722    1.1817   -2.2265 C   0  0  0  0  0  0  0  0  0  0  0  0
    7.2684    0.1708   -2.3180 O   0  0  0  0  0  0  0  0  0  0  0  0
    6.9690    2.3514   -1.3414 C   0  0  0  0  0  0  0  0  0  0  0  0
    8.5158    2.4811   -1.2044 C   0  0  3  0  0  0  0  0  0  0  0  0
    9.0283    2.8134   -2.7020 C   0  0  0  0  0  0  0  0  0  0  0  0
    8.2384    3.0574   -3.6192 O   0  0  0  0  0  0  0  0  0  0  0  0
   10.3870    2.9712   -2.8439 N   0  0  0  0  0  0  0  0  0  0  0  0
   11.0373    3.5947   -3.9525 C   0  0  0  0  0  0  0  0  0  0  0  0
   10.9030    3.1771   -5.2728 C   0  0  0  0  0  0  0  0  0  0  0  0
   11.8873    3.3717   -6.1871 N   0  0  0  0  0  0  0  0  0  0  0  0
   12.9228    4.1473   -5.7998 C   0  0  0  0  0  0  0  0  0  0  0  0
   12.9024    4.9773   -4.6828 C   0  0  0  0  0  0  0  0  0  0  0  0
   13.7352    6.1098   -4.5222 C   0  0  0  0  0  0  0  0  0  0  0  0
   13.6746    6.8614   -3.3499 C   0  0  0  0  0  0  0  0  0  0  0  0
   12.8579    6.4350   -2.3084 C   0  0  0  0  0  0  0  0  0  0  0  0
   12.0394    5.3165   -2.4671 C   0  0  0  0  0  0  0  0  0  0  0  0
   11.9892    4.6082   -3.6848 C   0  0  0  0  0  0  0  0  0  0  0  0
    9.1758    1.2429   -0.5330 C   0  0  0  0  0  0  0  0  0  0  0  0
    8.6542    1.0962    0.8954 C   0  0  0  0  0  0  0  0  0  0  0  0
    9.1414    2.1551    1.7170 O   0  0  0  0  0  0  0  0  0  0  0  0
    9.0337    3.3887    1.1468 C   0  0  0  0  0  0  0  0  0  0  0  0
    9.2512    4.4421    2.0816 C   0  0  0  0  0  0  0  0  0  0  0  0
    9.1861    5.7588    1.6480 C   0  0  0  0  0  0  0  0  0  0  0  0
    8.9060    6.0228    0.3098 C   0  0  0  0  0  0  0  0  0  0  0  0
    8.8266    7.6595   -0.2202 Cl  0  0  0  0  0  0  0  0  0  0  0  0
    8.6868    4.9841   -0.6153 C   0  0  0  0  0  0  0  0  0  0  0  0
    8.7822    3.6419   -0.2096 C   0  0  0  0  0  0  0  0  0  0  0  0
    0.5776    0.8520   -2.9112 H   0  0  0  0  0  0  0  0  0  0  0  0
    1.0172    0.0931   -4.4372 H   0  0  0  0  0  0  0  0  0  0  0  0
    1.1539    1.8519   -4.2595 H   0  0  0  0  0  0  0  0  0  0  0  0
    3.2689    1.3702   -1.3276 H   0  0  0  0  0  0  0  0  0  0  0  0
    2.3399    2.5838   -2.2493 H   0  0  0  0  0  0  0  0  0  0  0  0
    4.7016    3.2860   -2.6189 H   0  0  0  0  0  0  0  0  0  0  0  0
    4.8367    2.4383   -5.1236 H   0  0  0  0  0  0  0  0  0  0  0  0
    3.1538    2.8841   -4.7197 H   0  0  0  0  0  0  0  0  0  0  0  0
    3.3371    0.2577   -5.2834 H   0  0  0  0  0  0  0  0  0  0  0  0
    5.7455    0.0923   -4.5969 H   0  0  0  0  0  0  0  0  0  0  0  0
    4.8887   -0.7562   -3.2722 H   0  0  0  0  0  0  0  0  0  0  0  0
    6.4704    2.2344   -0.3742 H   0  0  0  0  0  0  0  0  0  0  0  0
    6.5797    3.2840   -1.7630 H   0  0  0  0  0  0  0  0  0  0  0  0
   10.9305    2.9729   -1.9882 H   0  0  0  0  0  0  0  0  0  0  0  0
   10.0737    2.5848   -5.6402 H   0  0  0  0  0  0  0  0  0  0  0  0
   13.8635    3.9615   -6.3186 H   0  0  0  0  0  0  0  0  0  0  0  0
   14.3328    6.4811   -5.3547 H   0  0  0  0  0  0  0  0  0  0  0  0
   14.2339    7.7881   -3.2528 H   0  0  0  0  0  0  0  0  0  0  0  0
   12.8282    6.9888   -1.3757 H   0  0  0  0  0  0  0  0  0  0  0  0
   11.3885    5.0496   -1.6420 H   0  0  0  0  0  0  0  0  0  0  0  0
   10.2660    1.3681   -0.4859 H   0  0  0  0  0  0  0  0  0  0  0  0
    9.0216    0.3065   -1.0659 H   0  0  0  0  0  0  0  0  0  0  0  0
    9.0005    0.1563    1.3438 H   0  0  0  0  0  0  0  0  0  0  0  0
    7.5595    1.0688    0.9730 H   0  0  0  0  0  0  0  0  0  0  0  0
    9.4627    4.2188    3.1254 H   0  0  0  0  0  0  0  0  0  0  0  0
    9.3516    6.5708    2.3561 H   0  0  0  0  0  0  0  0  0  0  0  0
    8.4657    5.2446   -1.6464 H   0  0  0  0  0  0  0  0  0  0  0  0
  1  2  1  0  0  0  0
  1 36  1  0  0  0  0
  1 37  1  0  0  0  0
  1 38  1  0  0  0  0
  2  3  1  0  0  0  0
  2  6  1  0  0  0  0
  3  4  1  0  0  0  0
  3 39  1  0  0  0  0
  3 40  1  0  0  0  0
  4  5  1  0  0  0  0
  4  8  1  0  0  0  0
  4 41  1  1  0  0  0
  5  6  1  0  0  0  0
  5 42  1  0  0  0  0
  5 43  1  0  0  0  0
  6  7  1  0  0  0  0
  6 44  1  6  0  0  0
  7  8  1  0  0  0  0
  7 45  1  0  0  0  0
  7 46  1  0  0  0  0
  8  9  1  0  0  0  0
  9 10  2  0  0  0  0
  9 11  1  0  0  0  0
 11 12  1  0  0  0  0
 11 47  1  0  0  0  0
 11 48  1  0  0  0  0
 12 13  1  0  0  0  0
 12 26  1  0  0  0  0
 12 35  1  0  0  0  0
 13 14  2  0  0  0  0
 13 15  1  0  0  0  0
 15 16  1  0  0  0  0
 15 49  1  0  0  0  0
 16 17  1  0  0  0  0
 16 25  2  0  0  0  0
 17 18  2  0  0  0  0
 17 50  1  0  0  0  0
 18 19  1  0  0  0  0
 19 20  2  0  0  0  0
 19 51  1  0  0  0  0
 20 21  1  0  0  0  0
 20 25  1  0  0  0  0
 21 22  2  0  0  0  0
 21 52  1  0  0  0  0
 22 23  1  0  0  0  0
 22 53  1  0  0  0  0
 23 24  2  0  0  0  0
 23 54  1  0  0  0  0
 24 25  1  0  0  0  0
 24 55  1  0  0  0  0
 26 27  1  0  0  0  0
 26 56  1  0  0  0  0
 26 57  1  0  0  0  0
 27 28  1  0  0  0  0
 27 58  1  0  0  0  0
 27 59  1  0  0  0  0
 28 29  1  0  0  0  0
 29 30  1  0  0  0  0
 29 35  2  0  0  0  0
 30 31  2  0  0  0  0
 30 60  1  0  0  0  0
 31 32  1  0  0  0  0
 31 61  1  0  0  0  0
 32 33  1  0  0  0  0
 32 34  2  0  0  0  0
 34 35  1  0  0  0  0
 34 62  1  0  0  0  0
M  END
$$$$
