
 OpenBabel07202414163D

 68 72  0  0  0  0  0  0  0  0999 V2000
    1.9958   -2.5847   -1.2632 Cl  0  0  0  0  0  0  0  0  0  0  0  0
    1.3612   -1.1901   -0.4704 C   0  0  0  0  0  0  0  0  0  0  0  0
    2.0483    0.0221   -0.5505 C   0  0  0  0  0  0  0  0  0  0  0  0
    1.5962    1.1849    0.0890 C   0  0  0  0  0  0  0  0  0  0  0  0
    2.2924    2.3928    0.0525 N   0  0  0  0  0  0  0  0  0  0  0  0
    3.7830    2.4731    0.0165 C   0  0  0  0  0  0  0  0  0  0  0  0
    4.3199    2.4757   -1.4259 C   0  0  0  0  0  0  0  0  0  0  0  0
    5.8455    2.4524   -1.4946 C   0  0  0  0  0  0  0  0  0  0  0  0
    6.4425    1.3671   -0.6077 C   0  0  0  0  0  0  0  0  0  0  0  0
    6.0045    1.5513    0.8406 C   0  0  0  0  0  0  0  0  0  0  0  0
    4.4840    1.4804    0.9622 C   0  0  0  0  0  0  0  0  0  0  0  0
    1.6001    3.7045   -0.0960 C   0  0  0  0  0  0  0  0  0  0  0  0
    1.2207    4.3188    1.2629 C   0  0  0  0  0  0  0  0  0  0  0  0
    0.4269    5.6153    1.1165 C   0  0  0  0  0  0  0  0  0  0  0  0
   -0.7473    5.4575    0.1567 C   0  0  0  0  0  0  0  0  0  0  0  0
   -0.2712    5.0097   -1.2192 C   0  0  0  0  0  0  0  0  0  0  0  0
    0.4675    3.6755   -1.1360 C   0  0  0  0  0  0  0  0  0  0  0  0
    0.3872    1.0441    0.7992 C   0  0  0  0  0  0  0  0  0  0  0  0
   -0.3257   -0.1678    0.8923 C   0  0  0  0  0  0  0  0  0  0  0  0
   -1.5692   -0.2478    1.7419 C   0  0  0  0  0  0  0  0  0  0  0  0
   -2.6625    0.7388    1.3678 C   0  0  0  0  0  0  0  0  0  0  0  0
   -3.2142    1.4224    2.2274 O   0  0  0  0  0  0  0  0  0  0  0  0
   -3.0386    0.6998    0.0373 N   0  0  0  0  0  0  0  0  0  0  0  0
   -4.0759    1.4987   -0.5030 C   0  0  0  0  0  0  0  0  0  0  0  0
   -4.2570    2.8229   -0.0981 C   0  0  0  0  0  0  0  0  0  0  0  0
   -5.1972    3.6560   -0.5991 N   0  0  0  0  0  0  0  0  0  0  0  0
   -6.0268    3.1313   -1.5250 C   0  0  0  0  0  0  0  0  0  0  0  0
   -5.9673    1.8162   -1.9926 C   0  0  0  0  0  0  0  0  0  0  0  0
   -6.9029    1.3254   -2.9206 C   0  0  0  0  0  0  0  0  0  0  0  0
   -6.8618   -0.0038   -3.3368 C   0  0  0  0  0  0  0  0  0  0  0  0
   -5.8818   -0.8527   -2.8393 C   0  0  0  0  0  0  0  0  0  0  0  0
   -4.9377   -0.3723   -1.9289 C   0  0  0  0  0  0  0  0  0  0  0  0
   -4.9551    0.9715   -1.4810 C   0  0  0  0  0  0  0  0  0  0  0  0
    0.1809   -1.2953    0.2509 C   0  0  0  0  0  0  0  0  0  0  0  0
    2.9674    0.0313   -1.1300 H   0  0  0  0  0  0  0  0  0  0  0  0
    4.0548    3.4578    0.4292 H   0  0  0  0  0  0  0  0  0  0  0  0
    3.9594    3.3705   -1.9487 H   0  0  0  0  0  0  0  0  0  0  0  0
    3.9318    1.6306   -1.9987 H   0  0  0  0  0  0  0  0  0  0  0  0
    6.2390    3.4296   -1.1875 H   0  0  0  0  0  0  0  0  0  0  0  0
    6.1607    2.2970   -2.5325 H   0  0  0  0  0  0  0  0  0  0  0  0
    7.5358    1.3989   -0.6705 H   0  0  0  0  0  0  0  0  0  0  0  0
    6.1281    0.3795   -0.9679 H   0  0  0  0  0  0  0  0  0  0  0  0
    6.3630    2.5174    1.2165 H   0  0  0  0  0  0  0  0  0  0  0  0
    6.4598    0.7755    1.4666 H   0  0  0  0  0  0  0  0  0  0  0  0
    4.1907    1.6895    1.9988 H   0  0  0  0  0  0  0  0  0  0  0  0
    4.1907    0.4464    0.7681 H   0  0  0  0  0  0  0  0  0  0  0  0
    2.3293    4.4109   -0.5210 H   0  0  0  0  0  0  0  0  0  0  0  0
    2.1313    4.5179    1.8420 H   0  0  0  0  0  0  0  0  0  0  0  0
    0.6348    3.6365    1.8793 H   0  0  0  0  0  0  0  0  0  0  0  0
    1.0903    6.4099    0.7550 H   0  0  0  0  0  0  0  0  0  0  0  0
    0.0584    5.9308    2.0995 H   0  0  0  0  0  0  0  0  0  0  0  0
   -1.2808    6.4100    0.0676 H   0  0  0  0  0  0  0  0  0  0  0  0
   -1.4586    4.7258    0.5589 H   0  0  0  0  0  0  0  0  0  0  0  0
    0.3894    5.7705   -1.6498 H   0  0  0  0  0  0  0  0  0  0  0  0
   -1.1281    4.9087   -1.8942 H   0  0  0  0  0  0  0  0  0  0  0  0
    0.8865    3.4315   -2.1207 H   0  0  0  0  0  0  0  0  0  0  0  0
   -0.2697    2.8975   -0.9183 H   0  0  0  0  0  0  0  0  0  0  0  0
   -0.0248    1.8924    1.3318 H   0  0  0  0  0  0  0  0  0  0  0  0
   -1.2788   -0.0537    2.7821 H   0  0  0  0  0  0  0  0  0  0  0  0
   -2.0012   -1.2547    1.7136 H   0  0  0  0  0  0  0  0  0  0  0  0
   -2.7161   -0.0851   -0.5122 H   0  0  0  0  0  0  0  0  0  0  0  0
   -3.6075    3.2841    0.6409 H   0  0  0  0  0  0  0  0  0  0  0  0
   -6.7851    3.8223   -1.8851 H   0  0  0  0  0  0  0  0  0  0  0  0
   -7.6868    1.9731   -3.3075 H   0  0  0  0  0  0  0  0  0  0  0  0
   -7.6034   -0.3791   -4.0371 H   0  0  0  0  0  0  0  0  0  0  0  0
   -5.8586   -1.8961   -3.1441 H   0  0  0  0  0  0  0  0  0  0  0  0
   -4.2123   -1.0830   -1.5444 H   0  0  0  0  0  0  0  0  0  0  0  0
   -0.3268   -2.2534    0.3232 H   0  0  0  0  0  0  0  0  0  0  0  0
  1  2  1  0  0  0  0
  2  3  2  0  0  0  0
  2 34  1  0  0  0  0
  3  4  1  0  0  0  0
  3 35  1  0  0  0  0
  4  5  1  0  0  0  0
  4 18  2  0  0  0  0
  5  6  1  0  0  0  0
  5 12  1  0  0  0  0
  6  7  1  0  0  0  0
  6 11  1  0  0  0  0
  6 36  1  0  0  0  0
  7  8  1  0  0  0  0
  7 37  1  0  0  0  0
  7 38  1  0  0  0  0
  8  9  1  0  0  0  0
  8 39  1  0  0  0  0
  8 40  1  0  0  0  0
  9 10  1  0  0  0  0
  9 41  1  0  0  0  0
  9 42  1  0  0  0  0
 10 11  1  0  0  0  0
 10 43  1  0  0  0  0
 10 44  1  0  0  0  0
 11 45  1  0  0  0  0
 11 46  1  0  0  0  0
 12 13  1  0  0  0  0
 12 17  1  0  0  0  0
 12 47  1  0  0  0  0
 13 14  1  0  0  0  0
 13 48  1  0  0  0  0
 13 49  1  0  0  0  0
 14 15  1  0  0  0  0
 14 50  1  0  0  0  0
 14 51  1  0  0  0  0
 15 16  1  0  0  0  0
 15 52  1  0  0  0  0
 15 53  1  0  0  0  0
 16 17  1  0  0  0  0
 16 54  1  0  0  0  0
 16 55  1  0  0  0  0
 17 56  1  0  0  0  0
 17 57  1  0  0  0  0
 18 19  1  0  0  0  0
 18 58  1  0  0  0  0
 19 20  1  0  0  0  0
 19 34  2  0  0  0  0
 20 21  1  0  0  0  0
 20 59  1  0  0  0  0
 20 60  1  0  0  0  0
 21 22  2  0  0  0  0
 21 23  1  0  0  0  0
 23 24  1  0  0  0  0
 23 61  1  0  0  0  0
 24 25  2  0  0  0  0
 24 33  1  0  0  0  0
 25 26  1  0  0  0  0
 25 62  1  0  0  0  0
 26 27  2  0  0  0  0
 27 28  1  0  0  0  0
 27 63  1  0  0  0  0
 28 29  2  0  0  0  0
 28 33  1  0  0  0  0
 29 30  1  0  0  0  0
 29 64  1  0  0  0  0
 30 31  2  0  0  0  0
 30 65  1  0  0  0  0
 31 32  1  0  0  0  0
 31 66  1  0  0  0  0
 32 33  2  0  0  0  0
 32 67  1  0  0  0  0
 34 68  1  0  0  0  0
M  END
$$$$
