
 OpenBabel07202414203D

 36 40  0  0  0  0  0  0  0  0999 V2000
    1.3863   -0.2725    0.0509 C   0  0  0  0  0  0  0  0  0  0  0  0
    0.5011   -1.2240    0.5566 C   0  0  0  0  0  0  0  0  0  0  0  0
   -0.8774   -1.0050    0.4940 C   0  0  0  0  0  0  0  0  0  0  0  0
   -1.3792    0.1771   -0.0663 C   0  0  0  0  0  0  0  0  0  0  0  0
   -0.4812    1.1244   -0.5810 C   0  0  0  0  0  0  0  0  0  0  0  0
    0.8964    0.9006   -0.5196 C   0  0  0  0  0  0  0  0  0  0  0  0
   -2.8451    0.4405   -0.1830 C   0  0  0  0  0  0  0  0  0  0  0  0
   -3.7289   -0.1473    0.8783 C   0  0  0  0  0  0  0  0  0  0  0  0
   -5.0492    0.0647    0.7393 C   0  0  0  0  0  0  0  0  0  0  0  0
   -5.5136    0.8220   -0.3429 N   0  0  0  0  0  0  0  0  0  0  0  0
   -4.6158    1.3732   -1.2669 C   0  0  0  0  0  0  0  0  0  0  0  0
   -3.2713    1.1726   -1.1724 N   0  0  0  0  0  0  0  0  0  0  0  0
   -5.2840    2.0659   -2.1630 N   0  0  0  0  0  0  0  0  0  0  0  0
   -6.5781    1.9188   -1.7769 C   0  0  0  0  0  0  0  0  0  0  0  0
   -6.7828    1.1815   -0.6867 N   0  0  0  0  0  0  0  0  0  0  0  0
   -6.1792   -0.4977    1.9351 S   0  0  0  0  0  0  0  0  0  0  0  0
   -6.6331   -2.0023    1.1864 C   0  0  0  0  0  0  0  0  0  0  0  0
   -5.8387   -2.7625    0.4601 N   0  0  0  0  0  0  0  0  0  0  0  0
   -6.5589   -3.8996    0.1506 N   0  0  0  0  0  0  0  0  0  0  0  0
   -7.7502   -3.7678    0.7058 C   0  0  0  0  0  0  0  0  0  0  0  0
   -7.8575   -2.5781    1.3881 O   0  0  0  0  0  0  0  0  0  0  0  0
   -8.7936   -4.7523    0.6212 C   0  0  0  0  0  0  0  0  0  0  0  0
   -8.7242   -5.9941    0.0169 C   0  0  0  0  0  0  0  0  0  0  0  0
   -9.9494   -6.7210    0.1109 C   0  0  0  0  0  0  0  0  0  0  0  0
  -10.9152   -6.0095    0.7878 C   0  0  0  0  0  0  0  0  0  0  0  0
  -10.3418   -4.4838    1.3064 S   0  0  0  0  0  0  0  0  0  0  0  0
    2.4582   -0.4517    0.0900 H   0  0  0  0  0  0  0  0  0  0  0  0
    0.8856   -2.1461    0.9854 H   0  0  0  0  0  0  0  0  0  0  0  0
   -1.5378   -1.7871    0.8574 H   0  0  0  0  0  0  0  0  0  0  0  0
   -0.8480    2.0411   -1.0402 H   0  0  0  0  0  0  0  0  0  0  0  0
    1.5854    1.6376   -0.9265 H   0  0  0  0  0  0  0  0  0  0  0  0
   -3.3034   -0.6812    1.7173 H   0  0  0  0  0  0  0  0  0  0  0  0
   -7.4056    2.3674   -2.3121 H   0  0  0  0  0  0  0  0  0  0  0  0
   -7.8329   -6.3677   -0.4751 H   0  0  0  0  0  0  0  0  0  0  0  0
  -10.1130   -7.7100   -0.2967 H   0  0  0  0  0  0  0  0  0  0  0  0
  -11.9311   -6.3124    1.0037 H   0  0  0  0  0  0  0  0  0  0  0  0
  1  2  1  0  0  0  0
  1  6  2  0  0  0  0
  1 27  1  0  0  0  0
  2  3  2  0  0  0  0
  2 28  1  0  0  0  0
  3  4  1  0  0  0  0
  3 29  1  0  0  0  0
  4  5  2  0  0  0  0
  4  7  1  0  0  0  0
  5  6  1  0  0  0  0
  5 30  1  0  0  0  0
  6 31  1  0  0  0  0
  7  8  1  0  0  0  0
  7 12  2  0  0  0  0
  8  9  2  0  0  0  0
  8 32  1  0  0  0  0
  9 10  1  0  0  0  0
  9 16  1  0  0  0  0
 10 11  1  0  0  0  0
 10 15  1  0  0  0  0
 11 12  1  0  0  0  0
 11 13  2  0  0  0  0
 13 14  1  0  0  0  0
 14 15  2  0  0  0  0
 14 33  1  0  0  0  0
 16 17  1  0  0  0  0
 17 18  2  0  0  0  0
 17 21  1  0  0  0  0
 18 19  1  0  0  0  0
 19 20  2  0  0  0  0
 20 21  1  0  0  0  0
 20 22  1  0  0  0  0
 22 23  2  0  0  0  0
 22 26  1  0  0  0  0
 23 24  1  0  0  0  0
 23 34  1  0  0  0  0
 24 25  2  0  0  0  0
 24 35  1  0  0  0  0
 25 26  1  0  0  0  0
 25 36  1  0  0  0  0
M  END
$$$$
