
 OpenBabel07202414133D

 52 55  0  0  0  0  0  0  0  0999 V2000
    1.9857    1.3219    0.2339 C   0  0  0  0  0  0  0  0  0  0  0  0
    2.5033    0.0547   -0.2711 N   0  0  0  0  0  0  0  0  0  0  0  0
    1.7373   -0.5925   -1.3361 C   0  0  0  0  0  0  0  0  0  0  0  0
    3.2215   -0.8014    0.5714 C   0  0  0  0  0  0  0  0  0  0  0  0
    3.1175   -0.7736    1.9700 C   0  0  0  0  0  0  0  0  0  0  0  0
    3.8465   -1.6567    2.7869 C   0  0  0  0  0  0  0  0  0  0  0  0
    4.7324   -2.5750    2.2241 C   0  0  0  0  0  0  0  0  0  0  0  0
    4.8567   -2.6260    0.8367 C   0  0  0  0  0  0  0  0  0  0  0  0
    4.1073   -1.7510    0.0295 C   0  0  0  0  0  0  0  0  0  0  0  0
    5.4704   -3.4634    3.0607 N   0  0  0  0  0  0  0  0  0  0  0  0
    6.7924   -3.0674    3.5656 C   0  0  0  0  0  0  0  0  0  0  0  0
    7.1939   -1.6418    3.3416 C   0  0  0  0  0  0  0  0  0  0  0  0
    8.0242   -1.1913    2.2601 C   0  0  0  0  0  0  0  0  0  0  0  0
    8.2320    0.1695    2.2815 C   0  0  0  0  0  0  0  0  0  0  0  0
    7.4771    0.9113    3.6216 S   0  0  0  0  0  0  0  0  0  0  0  0
    6.8667   -0.5864    4.1749 C   0  0  0  0  0  0  0  0  0  0  0  0
    4.9239   -4.7273    3.3165 C   0  0  0  0  0  0  0  0  0  0  0  0
    3.7992   -5.0641    2.9342 O   0  0  0  0  0  0  0  0  0  0  0  0
    5.7555   -5.7284    4.1238 C   0  0  0  0  0  0  0  0  0  0  0  0
    5.5349   -5.7527    5.6246 C   0  0  0  0  0  0  0  0  0  0  0  0
    4.6443   -4.8775    6.2464 C   0  0  0  0  0  0  0  0  0  0  0  0
    4.4155   -4.8291    7.5759 N   0  0  0  0  0  0  0  0  0  0  0  0
    5.0804   -5.7208    8.3380 C   0  0  0  0  0  0  0  0  0  0  0  0
    5.9826   -6.6628    7.8509 C   0  0  0  0  0  0  0  0  0  0  0  0
    6.2284   -6.6796    6.4580 C   0  0  0  0  0  0  0  0  0  0  0  0
    7.1541   -7.6417    5.9865 C   0  0  0  0  0  0  0  0  0  0  0  0
    7.7977   -8.5358    6.8516 C   0  0  0  0  0  0  0  0  0  0  0  0
    7.5368   -8.4975    8.2151 C   0  0  0  0  0  0  0  0  0  0  0  0
    6.6335   -7.5630    8.7146 C   0  0  0  0  0  0  0  0  0  0  0  0
    1.4282    1.8571   -0.5447 H   0  0  0  0  0  0  0  0  0  0  0  0
    2.8146    1.9773    0.5234 H   0  0  0  0  0  0  0  0  0  0  0  0
    1.3062    1.1953    1.0819 H   0  0  0  0  0  0  0  0  0  0  0  0
    1.0288    0.1033   -1.8014 H   0  0  0  0  0  0  0  0  0  0  0  0
    1.1561   -1.4402   -0.9560 H   0  0  0  0  0  0  0  0  0  0  0  0
    2.3998   -0.9389   -2.1360 H   0  0  0  0  0  0  0  0  0  0  0  0
    2.4320   -0.0907    2.4614 H   0  0  0  0  0  0  0  0  0  0  0  0
    3.7048   -1.6205    3.8627 H   0  0  0  0  0  0  0  0  0  0  0  0
    5.5284   -3.3363    0.3649 H   0  0  0  0  0  0  0  0  0  0  0  0
    4.2474   -1.7993   -1.0479 H   0  0  0  0  0  0  0  0  0  0  0  0
    7.5357   -3.7266    3.1009 H   0  0  0  0  0  0  0  0  0  0  0  0
    6.8130   -3.2740    4.6424 H   0  0  0  0  0  0  0  0  0  0  0  0
    8.4359   -1.8358    1.4924 H   0  0  0  0  0  0  0  0  0  0  0  0
    8.7930    0.7648    1.5744 H   0  0  0  0  0  0  0  0  0  0  0  0
    6.2779   -0.6191    5.0819 H   0  0  0  0  0  0  0  0  0  0  0  0
    6.8198   -5.5925    3.9118 H   0  0  0  0  0  0  0  0  0  0  0  0
    5.4956   -6.7190    3.7268 H   0  0  0  0  0  0  0  0  0  0  0  0
    4.0585   -4.1540    5.6849 H   0  0  0  0  0  0  0  0  0  0  0  0
    4.8509   -5.6564    9.3980 H   0  0  0  0  0  0  0  0  0  0  0  0
    7.3858   -7.7191    4.9273 H   0  0  0  0  0  0  0  0  0  0  0  0
    8.4994   -9.2668    6.4554 H   0  0  0  0  0  0  0  0  0  0  0  0
    8.0314   -9.1939    8.8878 H   0  0  0  0  0  0  0  0  0  0  0  0
    6.4350   -7.5457    9.7848 H   0  0  0  0  0  0  0  0  0  0  0  0
  1  2  1  0  0  0  0
  1 30  1  0  0  0  0
  1 31  1  0  0  0  0
  1 32  1  0  0  0  0
  2  3  1  0  0  0  0
  2  4  1  0  0  0  0
  3 33  1  0  0  0  0
  3 34  1  0  0  0  0
  3 35  1  0  0  0  0
  4  5  1  0  0  0  0
  4  9  2  0  0  0  0
  5  6  2  0  0  0  0
  5 36  1  0  0  0  0
  6  7  1  0  0  0  0
  6 37  1  0  0  0  0
  7  8  2  0  0  0  0
  7 10  1  0  0  0  0
  8  9  1  0  0  0  0
  8 38  1  0  0  0  0
  9 39  1  0  0  0  0
 10 11  1  0  0  0  0
 10 17  1  0  0  0  0
 11 12  1  0  0  0  0
 11 40  1  0  0  0  0
 11 41  1  0  0  0  0
 12 13  1  0  0  0  0
 12 16  2  0  0  0  0
 13 14  2  0  0  0  0
 13 42  1  0  0  0  0
 14 15  1  0  0  0  0
 14 43  1  0  0  0  0
 15 16  1  0  0  0  0
 16 44  1  0  0  0  0
 17 18  2  0  0  0  0
 17 19  1  0  0  0  0
 19 20  1  0  0  0  0
 19 45  1  0  0  0  0
 19 46  1  0  0  0  0
 20 21  1  0  0  0  0
 20 25  2  0  0  0  0
 21 22  2  0  0  0  0
 21 47  1  0  0  0  0
 22 23  1  0  0  0  0
 23 24  2  0  0  0  0
 23 48  1  0  0  0  0
 24 25  1  0  0  0  0
 24 29  1  0  0  0  0
 25 26  1  0  0  0  0
 26 27  2  0  0  0  0
 26 49  1  0  0  0  0
 27 28  1  0  0  0  0
 27 50  1  0  0  0  0
 28 29  2  0  0  0  0
 28 51  1  0  0  0  0
 29 52  1  0  0  0  0
M  END
$$$$
