
 OpenBabel07202414133D

111111  0  0  1  0  0  0  0  0999 V2000
    6.6721    4.2359    1.6943 C   0  0  0  0  0  0  0  0  0  0  0  0
    8.1456    3.8645    1.6985 C   0  0  0  0  0  0  0  0  0  0  0  0
    8.3933    2.5466    0.9556 C   0  0  2  0  0  0  0  0  0  0  0  0
    9.8107    2.2105    1.0866 N   0  0  0  0  0  0  0  0  0  0  0  0
   10.2278    0.9128    1.2032 C   0  0  0  0  0  0  0  0  0  0  0  0
    9.4447   -0.0405    1.2489 O   0  0  0  0  0  0  0  0  0  0  0  0
   11.7281    0.7189    1.1958 C   0  0  0  0  0  0  0  0  0  0  0  0
   12.1418   -0.0495   -0.0630 C   0  0  0  0  0  0  0  0  0  0  0  0
   11.7264    0.6848   -1.3396 C   0  0  0  0  0  0  0  0  0  0  0  0
   12.4276    2.0317   -1.4069 C   0  0  0  0  0  0  0  0  0  0  0  0
   13.0292    3.1871   -1.4646 C   0  0  0  0  0  0  0  0  0  0  0  0
    7.9706    2.6618   -0.5372 C   0  0  0  0  0  0  0  0  0  0  0  0
    8.0935    3.7108   -1.1720 O   0  0  0  0  0  0  0  0  0  0  0  0
    7.5055    1.4991   -1.1248 N   0  0  0  0  0  0  0  0  0  0  0  0
    6.8079    1.5153   -2.4328 C   0  0  2  0  0  0  0  0  0  0  0  0
    5.2529    1.4846   -2.1353 C   0  0  0  0  0  0  0  0  0  0  0  0
    4.7970    1.1052   -1.0594 O   0  0  0  0  0  0  0  0  0  0  0  0
    4.4411    1.9728   -3.1401 N   0  0  0  0  0  0  0  0  0  0  0  0
    2.9746    2.1843   -3.0577 C   0  0  1  0  0  0  0  0  0  0  0  0
    2.5704    3.2659   -2.0235 C   0  0  0  0  0  0  0  0  0  0  0  0
    1.0463    3.5175   -1.8837 C   0  0  0  0  0  0  0  0  0  0  0  0
    0.2678    2.2678   -1.4665 C   0  0  0  0  0  0  0  0  0  0  0  0
    0.7401    4.6297   -0.8754 C   0  0  0  0  0  0  0  0  0  0  0  0
    2.5542    2.6797   -4.4728 C   0  0  0  0  0  0  0  0  0  0  0  0
    3.3524    3.2814   -5.1817 O   0  0  0  0  0  0  0  0  0  0  0  0
    1.2522    2.4695   -4.8490 N   0  0  0  0  0  0  0  0  0  0  0  0
    0.6956    2.9753   -6.1205 C   0  0  1  0  0  0  0  0  0  0  0  0
    1.4321    2.4255   -7.3476 C   0  0  0  0  0  0  0  0  0  0  0  0
    1.3715    0.8992   -7.4010 C   0  0  0  0  0  0  0  0  0  0  0  0
    2.1399    0.3000   -8.5567 C   0  0  0  0  0  0  0  0  0  0  0  0
    2.7751    1.0050   -9.3387 O   0  0  0  0  0  0  0  0  0  0  0  0
    2.0682   -1.0852   -8.6736 N   0  0  0  0  0  0  0  0  0  0  0  0
    1.3874   -1.9762   -7.7407 C   0  0  0  0  0  0  0  0  0  0  0  0
    2.7114   -1.7216   -9.8077 C   0  0  0  0  0  0  0  0  0  0  0  0
   -0.7864    2.5770   -6.1655 C   0  0  0  0  0  0  0  0  0  0  0  0
   -1.1862    1.5751   -5.5541 O   0  0  0  0  0  0  0  0  0  0  0  0
   -1.7364    3.4506   -6.9707 C   0  0  0  0  0  0  0  0  0  0  0  0
   -2.8079    2.6629   -7.5027 O   0  0  0  0  0  0  0  0  0  0  0  0
   -2.5636    2.0839   -8.7021 C   0  0  0  0  0  0  0  0  0  0  0  0
   -1.5307    2.2338   -9.3318 O   0  0  0  0  0  0  0  0  0  0  0  0
   -3.7224    1.2201   -9.1394 C   0  0  0  0  0  0  0  0  0  0  0  0
   -3.4727    0.0319   -9.8674 C   0  0  0  0  0  0  0  0  0  0  0  0
   -2.1068   -0.5175  -10.1923 C   0  0  0  0  0  0  0  0  0  0  0  0
   -4.5571   -0.7436  -10.3201 C   0  0  0  0  0  0  0  0  0  0  0  0
   -5.8774   -0.3769  -10.0549 C   0  0  0  0  0  0  0  0  0  0  0  0
   -6.1244    0.7875   -9.3370 C   0  0  0  0  0  0  0  0  0  0  0  0
   -5.0685    1.6015   -8.8737 C   0  0  0  0  0  0  0  0  0  0  0  0
   -5.4454    2.8452   -8.1238 C   0  0  0  0  0  0  0  0  0  0  0  0
    7.4268    0.4716   -3.4392 C   0  0  0  0  0  0  0  0  0  0  0  0
    6.8866    0.6407   -4.8678 C   0  0  0  0  0  0  0  0  0  0  0  0
    8.9502    0.7043   -3.5065 C   0  0  0  0  0  0  0  0  0  0  0  0
    7.2340   -1.0024   -3.0383 C   0  0  0  0  0  0  0  0  0  0  0  0
    6.4925    5.0933    2.3480 H   0  0  0  0  0  0  0  0  0  0  0  0
    6.0615    3.3977    2.0440 H   0  0  0  0  0  0  0  0  0  0  0  0
    6.3377    4.5060    0.6881 H   0  0  0  0  0  0  0  0  0  0  0  0
    8.4866    3.7641    2.7372 H   0  0  0  0  0  0  0  0  0  0  0  0
    8.7348    4.6806    1.2597 H   0  0  0  0  0  0  0  0  0  0  0  0
    7.8008    1.7558    1.4254 H   0  0  0  0  0  0  0  0  0  0  0  0
   10.4915    2.9463    0.9157 H   0  0  0  0  0  0  0  0  0  0  0  0
   12.0075    0.1627    2.0973 H   0  0  0  0  0  0  0  0  0  0  0  0
   12.2459    1.6843    1.2538 H   0  0  0  0  0  0  0  0  0  0  0  0
   11.6688   -1.0391   -0.0586 H   0  0  0  0  0  0  0  0  0  0  0  0
   13.2262   -0.2092   -0.0520 H   0  0  0  0  0  0  0  0  0  0  0  0
   10.6630    0.8848   -1.3039 H   0  0  0  0  0  0  0  0  0  0  0  0
   11.9641    0.0932   -2.2283 H   0  0  0  0  0  0  0  0  0  0  0  0
   13.5192    4.1320   -1.5200 H   0  0  0  0  0  0  0  0  0  0  0  0
    7.3558    0.6927   -0.5249 H   0  0  0  0  0  0  0  0  0  0  0  0
    6.9771    2.5072   -2.8725 H   0  0  0  0  0  0  0  0  0  0  0  0
    4.8684    2.3221   -3.9931 H   0  0  0  0  0  0  0  0  0  0  0  0
    2.5196    1.2137   -2.8445 H   0  0  0  0  0  0  0  0  0  0  0  0
    3.0458    4.2132   -2.3177 H   0  0  0  0  0  0  0  0  0  0  0  0
    2.9819    3.0173   -1.0386 H   0  0  0  0  0  0  0  0  0  0  0  0
    0.6605    3.8687   -2.8470 H   0  0  0  0  0  0  0  0  0  0  0  0
    0.3291    2.1095   -0.3847 H   0  0  0  0  0  0  0  0  0  0  0  0
    0.6211    1.3580   -1.9536 H   0  0  0  0  0  0  0  0  0  0  0  0
   -0.7897    2.3826   -1.7282 H   0  0  0  0  0  0  0  0  0  0  0  0
    1.0225    4.3317    0.1397 H   0  0  0  0  0  0  0  0  0  0  0  0
   -0.3353    4.8466   -0.8710 H   0  0  0  0  0  0  0  0  0  0  0  0
    1.2660    5.5566   -1.1219 H   0  0  0  0  0  0  0  0  0  0  0  0
    0.6182    1.9335   -4.2619 H   0  0  0  0  0  0  0  0  0  0  0  0
    0.7656    4.0671   -6.0826 H   0  0  0  0  0  0  0  0  0  0  0  0
    2.4796    2.7474   -7.3420 H   0  0  0  0  0  0  0  0  0  0  0  0
    1.0004    2.8461   -8.2638 H   0  0  0  0  0  0  0  0  0  0  0  0
    0.3279    0.5873   -7.5093 H   0  0  0  0  0  0  0  0  0  0  0  0
    1.7849    0.4852   -6.4746 H   0  0  0  0  0  0  0  0  0  0  0  0
    0.9148   -1.4560   -6.9077 H   0  0  0  0  0  0  0  0  0  0  0  0
    2.1197   -2.6797   -7.3328 H   0  0  0  0  0  0  0  0  0  0  0  0
    0.6158   -2.5282   -8.2846 H   0  0  0  0  0  0  0  0  0  0  0  0
    3.1874   -0.9987  -10.4747 H   0  0  0  0  0  0  0  0  0  0  0  0
    1.9521   -2.2701  -10.3725 H   0  0  0  0  0  0  0  0  0  0  0  0
    3.4698   -2.4178   -9.4390 H   0  0  0  0  0  0  0  0  0  0  0  0
   -1.2127    4.0091   -7.7531 H   0  0  0  0  0  0  0  0  0  0  0  0
   -2.1738    4.1817   -6.2822 H   0  0  0  0  0  0  0  0  0  0  0  0
   -1.2743    0.0538   -9.7865 H   0  0  0  0  0  0  0  0  0  0  0  0
   -1.9773   -0.5711  -11.2787 H   0  0  0  0  0  0  0  0  0  0  0  0
   -2.0127   -1.5269   -9.7766 H   0  0  0  0  0  0  0  0  0  0  0  0
   -4.3813   -1.6589  -10.8869 H   0  0  0  0  0  0  0  0  0  0  0  0
   -6.6947   -0.9881  -10.4083 H   0  0  0  0  0  0  0  0  0  0  0  0
   -7.1598    1.0620   -9.1409 H   0  0  0  0  0  0  0  0  0  0  0  0
   -6.5298    2.9828   -8.0804 H   0  0  0  0  0  0  0  0  0  0  0  0
   -5.0227    3.7272   -8.6153 H   0  0  0  0  0  0  0  0  0  0  0  0
   -5.1052    2.7829   -7.0856 H   0  0  0  0  0  0  0  0  0  0  0  0
    7.1447    1.6203   -5.2830 H   0  0  0  0  0  0  0  0  0  0  0  0
    5.8036    0.5103   -4.9054 H   0  0  0  0  0  0  0  0  0  0  0  0
    7.3175   -0.1154   -5.5381 H   0  0  0  0  0  0  0  0  0  0  0  0
    9.2103    1.7401   -3.7502 H   0  0  0  0  0  0  0  0  0  0  0  0
    9.4550    0.0422   -4.2180 H   0  0  0  0  0  0  0  0  0  0  0  0
    9.3643    0.4665   -2.5344 H   0  0  0  0  0  0  0  0  0  0  0  0
    6.1828   -1.2495   -2.8798 H   0  0  0  0  0  0  0  0  0  0  0  0
    7.8027   -1.2658   -2.1398 H   0  0  0  0  0  0  0  0  0  0  0  0
    7.6076   -1.6607   -3.8377 H   0  0  0  0  0  0  0  0  0  0  0  0
  1  2  1  0  0  0  0
  1 53  1  0  0  0  0
  1 54  1  0  0  0  0
  1 55  1  0  0  0  0
  2 56  1  0  0  0  0
  2 57  1  0  0  0  0
  3 12  1  0  0  0  0
  3  4  1  0  0  0  0
  3  2  1  0  0  0  0
  3 58  1  1  0  0  0
  4  5  1  0  0  0  0
  4 59  1  0  0  0  0
  5  6  2  0  0  0  0
  5  7  1  0  0  0  0
  7  8  1  0  0  0  0
  7 60  1  0  0  0  0
  7 61  1  0  0  0  0
  8  9  1  0  0  0  0
  8 62  1  0  0  0  0
  8 63  1  0  0  0  0
  9 10  1  0  0  0  0
  9 64  1  0  0  0  0
  9 65  1  0  0  0  0
 10 11  3  0  0  0  0
 11 66  1  0  0  0  0
 12 13  2  0  0  0  0
 12 14  1  0  0  0  0
 14 67  1  0  0  0  0
 15 49  1  0  0  0  0
 15 16  1  0  0  0  0
 15 14  1  0  0  0  0
 15 68  1  6  0  0  0
 16 17  2  0  0  0  0
 16 18  1  0  0  0  0
 18 19  1  0  0  0  0
 18 69  1  0  0  0  0
 19 20  1  0  0  0  0
 19 24  1  0  0  0  0
 19 70  1  1  0  0  0
 20 21  1  0  0  0  0
 20 71  1  0  0  0  0
 20 72  1  0  0  0  0
 21 22  1  0  0  0  0
 21 23  1  0  0  0  0
 21 73  1  0  0  0  0
 22 74  1  0  0  0  0
 22 75  1  0  0  0  0
 22 76  1  0  0  0  0
 23 77  1  0  0  0  0
 23 78  1  0  0  0  0
 23 79  1  0  0  0  0
 24 25  2  0  0  0  0
 24 26  1  0  0  0  0
 26 27  1  0  0  0  0
 26 80  1  0  0  0  0
 27 28  1  0  0  0  0
 27 35  1  0  0  0  0
 27 81  1  6  0  0  0
 28 29  1  0  0  0  0
 28 82  1  0  0  0  0
 28 83  1  0  0  0  0
 29 30  1  0  0  0  0
 29 84  1  0  0  0  0
 29 85  1  0  0  0  0
 30 31  2  0  0  0  0
 30 32  1  0  0  0  0
 32 33  1  0  0  0  0
 32 34  1  0  0  0  0
 33 86  1  0  0  0  0
 33 87  1  0  0  0  0
 33 88  1  0  0  0  0
 34 89  1  0  0  0  0
 34 90  1  0  0  0  0
 34 91  1  0  0  0  0
 35 36  2  0  0  0  0
 35 37  1  0  0  0  0
 37 38  1  0  0  0  0
 37 92  1  0  0  0  0
 37 93  1  0  0  0  0
 38 39  1  0  0  0  0
 39 40  2  0  0  0  0
 39 41  1  0  0  0  0
 41 42  1  0  0  0  0
 41 47  2  0  0  0  0
 42 43  1  0  0  0  0
 42 44  2  0  0  0  0
 43 94  1  0  0  0  0
 43 95  1  0  0  0  0
 43 96  1  0  0  0  0
 44 45  1  0  0  0  0
 44 97  1  0  0  0  0
 45 46  2  0  0  0  0
 45 98  1  0  0  0  0
 46 47  1  0  0  0  0
 46 99  1  0  0  0  0
 47 48  1  0  0  0  0
 48100  1  0  0  0  0
 48101  1  0  0  0  0
 48102  1  0  0  0  0
 49 50  1  0  0  0  0
 49 51  1  0  0  0  0
 49 52  1  0  0  0  0
 50103  1  0  0  0  0
 50104  1  0  0  0  0
 50105  1  0  0  0  0
 51106  1  0  0  0  0
 51107  1  0  0  0  0
 51108  1  0  0  0  0
 52109  1  0  0  0  0
 52110  1  0  0  0  0
 52111  1  0  0  0  0
M  END
$$$$
