
 OpenBabel07202414143D

 38 39  0  0  0  0  0  0  0  0999 V2000
    6.3410   -3.7587   -3.0906 C   0  0  0  0  0  0  0  0  0  0  0  0
    5.9511   -2.5575   -2.3992 N   0  0  0  0  0  0  0  0  0  0  0  0
    6.8408   -1.5070   -2.2793 C   0  0  0  0  0  0  0  0  0  0  0  0
    7.9776   -1.5351   -2.7395 O   0  0  0  0  0  0  0  0  0  0  0  0
    6.3649   -0.2850   -1.5763 C   0  0  0  0  0  0  0  0  0  0  0  0
    5.3769   -0.3264   -0.5898 C   0  0  0  0  0  0  0  0  0  0  0  0
    5.0179    0.8505    0.0687 C   0  0  0  0  0  0  0  0  0  0  0  0
    3.8206    0.7929    1.3052 Cl  0  0  0  0  0  0  0  0  0  0  0  0
    5.6323    2.0670   -0.2454 C   0  0  0  0  0  0  0  0  0  0  0  0
    6.6299    2.1216   -1.2285 C   0  0  0  0  0  0  0  0  0  0  0  0
    7.4007    3.3916   -1.5043 C   0  0  0  0  0  0  0  0  0  0  0  0
    6.5523    4.5975   -1.8549 C   0  0  0  0  0  0  0  0  0  0  0  0
    6.3284    5.4817   -1.0320 O   0  0  0  0  0  0  0  0  0  0  0  0
    6.0605    4.5778   -3.1491 N   0  0  0  0  0  0  0  0  0  0  0  0
    5.3055    5.6405   -3.6941 C   0  0  0  0  0  0  0  0  0  0  0  0
    5.6357    6.9779   -3.4620 C   0  0  0  0  0  0  0  0  0  0  0  0
    4.9611    8.0342   -3.9785 N   0  0  0  0  0  0  0  0  0  0  0  0
    3.8886    7.7454   -4.7401 C   0  0  0  0  0  0  0  0  0  0  0  0
    3.4735    6.4534   -5.0275 C   0  0  0  0  0  0  0  0  0  0  0  0
    4.1946    5.3712   -4.5047 C   0  0  0  0  0  0  0  0  0  0  0  0
    3.7159    3.9709   -4.7596 C   0  0  0  0  0  0  0  0  0  0  0  0
    6.9886    0.9350   -1.8854 C   0  0  0  0  0  0  0  0  0  0  0  0
    5.4908   -4.4457   -3.1101 H   0  0  0  0  0  0  0  0  0  0  0  0
    7.1785   -4.2202   -2.5581 H   0  0  0  0  0  0  0  0  0  0  0  0
    6.6501   -3.5140   -4.1095 H   0  0  0  0  0  0  0  0  0  0  0  0
    4.9766   -2.4297   -2.1591 H   0  0  0  0  0  0  0  0  0  0  0  0
    4.9175   -1.2643   -0.2933 H   0  0  0  0  0  0  0  0  0  0  0  0
    5.3553    2.9654    0.3057 H   0  0  0  0  0  0  0  0  0  0  0  0
    8.1174    3.2397   -2.3210 H   0  0  0  0  0  0  0  0  0  0  0  0
    7.9968    3.6400   -0.6177 H   0  0  0  0  0  0  0  0  0  0  0  0
    5.9683    3.6681   -3.5828 H   0  0  0  0  0  0  0  0  0  0  0  0
    6.4997    7.2534   -2.8630 H   0  0  0  0  0  0  0  0  0  0  0  0
    3.3444    8.6062   -5.1188 H   0  0  0  0  0  0  0  0  0  0  0  0
    2.5841    6.3011   -5.6305 H   0  0  0  0  0  0  0  0  0  0  0  0
    2.7281    3.9636   -5.2302 H   0  0  0  0  0  0  0  0  0  0  0  0
    3.6226    3.4257   -3.8130 H   0  0  0  0  0  0  0  0  0  0  0  0
    4.4141    3.4436   -5.4156 H   0  0  0  0  0  0  0  0  0  0  0  0
    7.7855    0.9411   -2.6295 H   0  0  0  0  0  0  0  0  0  0  0  0
  1  2  1  0  0  0  0
  1 23  1  0  0  0  0
  1 24  1  0  0  0  0
  1 25  1  0  0  0  0
  2  3  1  0  0  0  0
  2 26  1  0  0  0  0
  3  4  2  0  0  0  0
  3  5  1  0  0  0  0
  5  6  1  0  0  0  0
  5 22  2  0  0  0  0
  6  7  2  0  0  0  0
  6 27  1  0  0  0  0
  7  8  1  0  0  0  0
  7  9  1  0  0  0  0
  9 10  2  0  0  0  0
  9 28  1  0  0  0  0
 10 11  1  0  0  0  0
 10 22  1  0  0  0  0
 11 12  1  0  0  0  0
 11 29  1  0  0  0  0
 11 30  1  0  0  0  0
 12 13  2  0  0  0  0
 12 14  1  0  0  0  0
 14 15  1  0  0  0  0
 14 31  1  0  0  0  0
 15 16  1  0  0  0  0
 15 20  2  0  0  0  0
 16 17  2  0  0  0  0
 16 32  1  0  0  0  0
 17 18  1  0  0  0  0
 18 19  2  0  0  0  0
 18 33  1  0  0  0  0
 19 20  1  0  0  0  0
 19 34  1  0  0  0  0
 20 21  1  0  0  0  0
 21 35  1  0  0  0  0
 21 36  1  0  0  0  0
 21 37  1  0  0  0  0
 22 38  1  0  0  0  0
M  END
$$$$
