
 OpenBabel07202414193D

 46 49  0  0  1  0  0  0  0  0999 V2000
    1.1348    0.5355   -0.2247 O   0  0  0  0  0  0  0  0  0  0  0  0
    2.2878    0.1025   -0.1690 C   0  0  0  0  0  0  0  0  0  0  0  0
    2.9704   -0.0848    1.1783 C   0  0  0  0  0  0  0  0  0  0  0  0
    3.6222    1.1933    1.6510 C   0  0  0  0  0  0  0  0  0  0  0  0
    2.7984    2.3036    1.8735 C   0  0  0  0  0  0  0  0  0  0  0  0
    3.2283    3.5092    2.2870 N   0  0  0  0  0  0  0  0  0  0  0  0
    4.5553    3.6302    2.4958 C   0  0  0  0  0  0  0  0  0  0  0  0
    5.4855    2.6065    2.3080 C   0  0  0  0  0  0  0  0  0  0  0  0
    6.8554    2.8200    2.5455 C   0  0  0  0  0  0  0  0  0  0  0  0
    7.7781    1.7938    2.3499 C   0  0  0  0  0  0  0  0  0  0  0  0
    7.3392    0.5495    1.9234 C   0  0  0  0  0  0  0  0  0  0  0  0
    5.9806    0.3254    1.6941 C   0  0  0  0  0  0  0  0  0  0  0  0
    5.0150    1.3469    1.8758 C   0  0  0  0  0  0  0  0  0  0  0  0
    3.0253   -0.1715   -1.3017 N   0  0  0  0  0  0  0  0  0  0  0  0
    2.4837    0.0878   -2.6222 C   0  0  0  0  0  0  0  0  0  0  0  0
    2.8873   -1.1487   -3.3995 C   0  0  0  0  0  0  0  0  0  0  0  0
    4.2856   -1.4696   -2.8517 C   0  0  1  0  0  0  0  0  0  0  0  0
    5.4013   -0.6566   -3.5337 C   0  0  0  0  0  0  0  0  0  0  0  0
    6.7938   -1.0029   -3.0468 C   0  0  0  0  0  0  0  0  0  0  0  0
    7.8117   -0.0558   -3.1229 C   0  0  0  0  0  0  0  0  0  0  0  0
    9.1037   -0.4160   -2.7496 C   0  0  0  0  0  0  0  0  0  0  0  0
    9.3467   -1.7079   -2.3033 C   0  0  0  0  0  0  0  0  0  0  0  0
    8.2797   -2.5858   -2.2414 C   0  0  0  0  0  0  0  0  0  0  0  0
    7.0176   -2.2645   -2.6045 N   0  0  0  0  0  0  0  0  0  0  0  0
    4.1413   -1.1108   -1.3679 C   0  0  0  0  0  0  0  0  0  0  0  0
    3.6574   -0.9300    1.1508 H   0  0  0  0  0  0  0  0  0  0  0  0
    2.2032   -0.3825    1.9047 H   0  0  0  0  0  0  0  0  0  0  0  0
    1.7229    2.2480    1.7035 H   0  0  0  0  0  0  0  0  0  0  0  0
    4.8631    4.6165    2.8306 H   0  0  0  0  0  0  0  0  0  0  0  0
    7.2127    3.7897    2.8839 H   0  0  0  0  0  0  0  0  0  0  0  0
    8.8336    1.9688    2.5319 H   0  0  0  0  0  0  0  0  0  0  0  0
    8.0559   -0.2560    1.7672 H   0  0  0  0  0  0  0  0  0  0  0  0
    5.6970   -0.6681    1.3655 H   0  0  0  0  0  0  0  0  0  0  0  0
    2.9776    0.9839   -3.0153 H   0  0  0  0  0  0  0  0  0  0  0  0
    1.4039    0.2606   -2.6161 H   0  0  0  0  0  0  0  0  0  0  0  0
    2.8473   -1.0112   -4.4838 H   0  0  0  0  0  0  0  0  0  0  0  0
    2.2057   -1.9690   -3.1358 H   0  0  0  0  0  0  0  0  0  0  0  0
    4.4897   -2.5402   -2.9721 H   0  0  0  0  0  0  0  0  0  0  0  0
    5.2299    0.4160   -3.3823 H   0  0  0  0  0  0  0  0  0  0  0  0
    5.3745   -0.8378   -4.6153 H   0  0  0  0  0  0  0  0  0  0  0  0
    7.6101    0.9532   -3.4738 H   0  0  0  0  0  0  0  0  0  0  0  0
    9.9141    0.3039   -2.8139 H   0  0  0  0  0  0  0  0  0  0  0  0
   10.3428   -2.0238   -2.0147 H   0  0  0  0  0  0  0  0  0  0  0  0
    8.4157   -3.6053   -1.8927 H   0  0  0  0  0  0  0  0  0  0  0  0
    5.0335   -0.6529   -0.9346 H   0  0  0  0  0  0  0  0  0  0  0  0
    3.8763   -2.0000   -0.7867 H   0  0  0  0  0  0  0  0  0  0  0  0
  1  2  2  0  0  0  0
  2  3  1  0  0  0  0
  2 14  1  0  0  0  0
  3  4  1  0  0  0  0
  3 26  1  0  0  0  0
  3 27  1  0  0  0  0
  4  5  1  0  0  0  0
  4 13  2  0  0  0  0
  5  6  2  0  0  0  0
  5 28  1  0  0  0  0
  6  7  1  0  0  0  0
  7  8  2  0  0  0  0
  7 29  1  0  0  0  0
  8  9  1  0  0  0  0
  8 13  1  0  0  0  0
  9 10  2  0  0  0  0
  9 30  1  0  0  0  0
 10 11  1  0  0  0  0
 10 31  1  0  0  0  0
 11 12  2  0  0  0  0
 11 32  1  0  0  0  0
 12 13  1  0  0  0  0
 12 33  1  0  0  0  0
 14 15  1  0  0  0  0
 14 25  1  0  0  0  0
 15 16  1  0  0  0  0
 15 34  1  0  0  0  0
 15 35  1  0  0  0  0
 16 17  1  0  0  0  0
 16 36  1  0  0  0  0
 16 37  1  0  0  0  0
 17 18  1  0  0  0  0
 17 25  1  0  0  0  0
 17 38  1  6  0  0  0
 18 19  1  0  0  0  0
 18 39  1  0  0  0  0
 18 40  1  0  0  0  0
 19 20  1  0  0  0  0
 19 24  2  0  0  0  0
 20 21  2  0  0  0  0
 20 41  1  0  0  0  0
 21 22  1  0  0  0  0
 21 42  1  0  0  0  0
 22 23  2  0  0  0  0
 22 43  1  0  0  0  0
 23 24  1  0  0  0  0
 23 44  1  0  0  0  0
 25 45  1  0  0  0  0
 25 46  1  0  0  0  0
M  END
$$$$
