
 OpenBabel07202414193D

 38 40  0  0  0  0  0  0  0  0999 V2000
    0.9211    0.5288    0.5374 N   0  0  0  0  0  0  0  0  0  0  0  0
    2.1915    0.2367    0.1310 C   0  0  0  0  0  0  0  0  0  0  0  0
    2.6320   -0.9037    0.2105 O   0  0  0  0  0  0  0  0  0  0  0  0
    3.0130    1.3365   -0.4394 C   0  0  0  0  0  0  0  0  0  0  0  0
    2.7892    2.6750   -0.1185 C   0  0  0  0  0  0  0  0  0  0  0  0
    3.6382    3.6529   -0.6338 C   0  0  0  0  0  0  0  0  0  0  0  0
    4.7194    3.3052   -1.4639 C   0  0  0  0  0  0  0  0  0  0  0  0
    5.5820    4.2854   -1.9489 C   0  0  0  0  0  0  0  0  0  0  0  0
    6.6497    4.0444   -2.7296 N   0  0  0  0  0  0  0  0  0  0  0  0
    6.8633    2.7540   -3.0798 C   0  0  0  0  0  0  0  0  0  0  0  0
    6.0657    1.6746   -2.6879 C   0  0  0  0  0  0  0  0  0  0  0  0
    6.3402    0.3396   -3.1081 N   0  0  0  0  0  0  0  0  0  0  0  0
    7.2143   -0.0332   -4.1201 C   0  0  0  0  0  0  0  0  0  0  0  0
    7.8267    0.7351   -4.8578 O   0  0  0  0  0  0  0  0  0  0  0  0
    7.3595   -1.5389   -4.2896 C   0  0  0  0  0  0  0  0  0  0  0  0
    6.3173   -2.1448   -5.1987 C   0  0  0  0  0  0  0  0  0  0  0  0
    6.1501   -1.6822   -6.5137 C   0  0  0  0  0  0  0  0  0  0  0  0
    5.1799   -2.2424   -7.3488 C   0  0  0  0  0  0  0  0  0  0  0  0
    4.3749   -3.2814   -6.8847 C   0  0  0  0  0  0  0  0  0  0  0  0
    4.5553   -3.7666   -5.5919 C   0  0  0  0  0  0  0  0  0  0  0  0
    3.5774   -5.0627   -5.0216 Cl  0  0  0  0  0  0  0  0  0  0  0  0
    5.5216   -3.2097   -4.7521 C   0  0  0  0  0  0  0  0  0  0  0  0
    4.9662    1.9547   -1.8221 C   0  0  0  0  0  0  0  0  0  0  0  0
    4.0801    0.9873   -1.2850 C   0  0  0  0  0  0  0  0  0  0  0  0
    0.3578   -0.2561    0.8415 H   0  0  0  0  0  0  0  0  0  0  0  0
    0.4413    1.3797    0.2845 H   0  0  0  0  0  0  0  0  0  0  0  0
    1.9915    2.9729    0.5552 H   0  0  0  0  0  0  0  0  0  0  0  0
    3.4616    4.6952   -0.3697 H   0  0  0  0  0  0  0  0  0  0  0  0
    5.4423    5.3362   -1.7006 H   0  0  0  0  0  0  0  0  0  0  0  0
    7.7527    2.6294   -3.6886 H   0  0  0  0  0  0  0  0  0  0  0  0
    5.7743   -0.3978   -2.7116 H   0  0  0  0  0  0  0  0  0  0  0  0
    7.3383   -2.0095   -3.2990 H   0  0  0  0  0  0  0  0  0  0  0  0
    8.3566   -1.7422   -4.7005 H   0  0  0  0  0  0  0  0  0  0  0  0
    6.7753   -0.8767   -6.9000 H   0  0  0  0  0  0  0  0  0  0  0  0
    5.0531   -1.8674   -8.3618 H   0  0  0  0  0  0  0  0  0  0  0  0
    3.6165   -3.7097   -7.5344 H   0  0  0  0  0  0  0  0  0  0  0  0
    5.6536   -3.6136   -3.7511 H   0  0  0  0  0  0  0  0  0  0  0  0
    4.2102   -0.0686   -1.5062 H   0  0  0  0  0  0  0  0  0  0  0  0
  1  2  1  0  0  0  0
  1 25  1  0  0  0  0
  1 26  1  0  0  0  0
  2  3  2  0  0  0  0
  2  4  1  0  0  0  0
  4  5  1  0  0  0  0
  4 24  2  0  0  0  0
  5  6  2  0  0  0  0
  5 27  1  0  0  0  0
  6  7  1  0  0  0  0
  6 28  1  0  0  0  0
  7  8  1  0  0  0  0
  7 23  2  0  0  0  0
  8  9  2  0  0  0  0
  8 29  1  0  0  0  0
  9 10  1  0  0  0  0
 10 11  2  0  0  0  0
 10 30  1  0  0  0  0
 11 12  1  0  0  0  0
 11 23  1  0  0  0  0
 12 13  1  0  0  0  0
 12 31  1  0  0  0  0
 13 14  2  0  0  0  0
 13 15  1  0  0  0  0
 15 16  1  0  0  0  0
 15 32  1  0  0  0  0
 15 33  1  0  0  0  0
 16 17  1  0  0  0  0
 16 22  2  0  0  0  0
 17 18  2  0  0  0  0
 17 34  1  0  0  0  0
 18 19  1  0  0  0  0
 18 35  1  0  0  0  0
 19 20  2  0  0  0  0
 19 36  1  0  0  0  0
 20 21  1  0  0  0  0
 20 22  1  0  0  0  0
 22 37  1  0  0  0  0
 23 24  1  0  0  0  0
 24 38  1  0  0  0  0
M  END
$$$$
