
 OpenBabel07202414123D

 70 75  0  0  1  0  0  0  0  0999 V2000
   -0.5119    3.1341   -8.6270 C   0  0  0  0  0  0  0  0  0  0  0  0
    0.8525    3.7061   -8.1938 C   0  0  3  0  0  0  0  0  0  0  0  0
    1.5405    2.7122   -7.3480 N   0  0  0  0  0  0  0  0  0  0  0  0
    1.8884    1.4248   -7.6800 C   0  0  0  0  0  0  0  0  0  0  0  0
    2.4438    0.8342   -6.5550 C   0  0  0  0  0  0  0  0  0  0  0  0
    3.0467   -0.5366   -6.3706 C   0  0  0  0  0  0  0  0  0  0  0  0
    2.0168   -1.5645   -6.5446 N   0  0  0  0  0  0  0  0  0  0  0  0
    2.5299   -2.9668   -6.4563 C   0  0  0  0  0  0  0  0  0  0  0  0
    1.3544   -4.0250   -6.6245 C   0  0  3  0  0  0  0  0  0  0  0  0
    0.7573   -3.7842   -8.0567 C   0  0  0  0  0  0  0  0  0  0  0  0
    1.3515   -3.0599   -8.8580 O   0  0  0  0  0  0  0  0  0  0  0  0
   -0.3739   -4.5148   -8.3856 N   0  0  0  0  0  0  0  0  0  0  0  0
   -0.8989   -4.6980   -9.7033 C   0  0  0  0  0  0  0  0  0  0  0  0
   -0.3879   -4.0329  -10.8230 C   0  0  0  0  0  0  0  0  0  0  0  0
   -0.7356   -4.2848  -12.1074 N   0  0  0  0  0  0  0  0  0  0  0  0
   -1.6916   -5.2104  -12.2963 C   0  0  0  0  0  0  0  0  0  0  0  0
   -2.3767   -5.8506  -11.2681 C   0  0  0  0  0  0  0  0  0  0  0  0
   -3.4651   -6.6909  -11.5574 C   0  0  0  0  0  0  0  0  0  0  0  0
   -4.1746   -7.3071  -10.5324 C   0  0  0  0  0  0  0  0  0  0  0  0
   -3.7684   -7.1327   -9.2164 C   0  0  0  0  0  0  0  0  0  0  0  0
   -2.6745   -6.3120   -8.9190 C   0  0  0  0  0  0  0  0  0  0  0  0
   -1.9654   -5.6158   -9.9308 C   0  0  0  0  0  0  0  0  0  0  0  0
    0.3185   -3.7745   -5.4978 C   0  0  0  0  0  0  0  0  0  0  0  0
    0.8611   -4.3631   -4.1996 C   0  0  0  0  0  0  0  0  0  0  0  0
    0.8166   -5.7865   -4.2717 O   0  0  0  0  0  0  0  0  0  0  0  0
    1.3730   -6.3006   -5.4139 C   0  0  0  0  0  0  0  0  0  0  0  0
    1.4270   -7.6979   -5.4440 C   0  0  0  0  0  0  0  0  0  0  0  0
    1.8924   -8.3565   -6.5735 C   0  0  0  0  0  0  0  0  0  0  0  0
    2.3622   -7.6075   -7.6501 C   0  0  0  0  0  0  0  0  0  0  0  0
    2.9010   -8.4232   -9.0683 Cl  0  0  0  0  0  0  0  0  0  0  0  0
    2.3295   -6.2048   -7.6206 C   0  0  0  0  0  0  0  0  0  0  0  0
    1.7653   -5.5217   -6.5222 C   0  0  0  0  0  0  0  0  0  0  0  0
    2.3792    1.8758   -5.5966 C   0  0  0  0  0  0  0  0  0  0  0  0
    1.8299    2.9996   -6.0668 N   0  0  0  0  0  0  0  0  0  0  0  0
    0.5860    5.0810   -7.4931 C   0  0  0  0  0  0  0  0  0  0  0  0
    1.7921    6.0037   -7.6452 C   0  0  0  0  0  0  0  0  0  0  0  0
    2.7974    5.3264   -8.9333 S   0  0  0  0  0  0  0  0  0  0  0  0
    2.8984    6.2887  -10.0180 O   0  0  0  0  0  0  0  0  0  0  0  0
    3.9822    4.7133   -8.3555 O   0  0  0  0  0  0  0  0  0  0  0  0
    1.6869    4.0408   -9.4362 C   0  0  0  0  0  0  0  0  0  0  0  0
   -1.1386    2.9082   -7.7571 H   0  0  0  0  0  0  0  0  0  0  0  0
   -0.4002    2.2155   -9.2122 H   0  0  0  0  0  0  0  0  0  0  0  0
   -1.0611    3.8480   -9.2539 H   0  0  0  0  0  0  0  0  0  0  0  0
    1.7219    1.0309   -8.6753 H   0  0  0  0  0  0  0  0  0  0  0  0
    3.4725   -0.6111   -5.3635 H   0  0  0  0  0  0  0  0  0  0  0  0
    3.8556   -0.6686   -7.0974 H   0  0  0  0  0  0  0  0  0  0  0  0
    1.6452   -1.4470   -7.4954 H   0  0  0  0  0  0  0  0  0  0  0  0
    3.0297   -3.1022   -5.4914 H   0  0  0  0  0  0  0  0  0  0  0  0
    3.2948   -3.1279   -7.2266 H   0  0  0  0  0  0  0  0  0  0  0  0
   -0.7503   -5.1142   -7.6657 H   0  0  0  0  0  0  0  0  0  0  0  0
    0.3447   -3.2378  -10.7523 H   0  0  0  0  0  0  0  0  0  0  0  0
   -1.9091   -5.4198  -13.3410 H   0  0  0  0  0  0  0  0  0  0  0  0
   -3.7903   -6.8396  -12.5858 H   0  0  0  0  0  0  0  0  0  0  0  0
   -5.0460   -7.9147  -10.7614 H   0  0  0  0  0  0  0  0  0  0  0  0
   -4.3124   -7.6229   -8.4127 H   0  0  0  0  0  0  0  0  0  0  0  0
   -2.4137   -6.2071   -7.8709 H   0  0  0  0  0  0  0  0  0  0  0  0
   -0.6368   -4.2652   -5.7249 H   0  0  0  0  0  0  0  0  0  0  0  0
    0.0966   -2.7124   -5.3681 H   0  0  0  0  0  0  0  0  0  0  0  0
    0.2369   -4.0634   -3.3526 H   0  0  0  0  0  0  0  0  0  0  0  0
    1.8845   -4.0505   -3.9595 H   0  0  0  0  0  0  0  0  0  0  0  0
    1.0628   -8.2734   -4.5943 H   0  0  0  0  0  0  0  0  0  0  0  0
    1.8711   -9.4432   -6.6167 H   0  0  0  0  0  0  0  0  0  0  0  0
    2.6608   -5.6608   -8.5039 H   0  0  0  0  0  0  0  0  0  0  0  0
    2.7216    1.8597   -4.5697 H   0  0  0  0  0  0  0  0  0  0  0  0
    0.3158    4.9816   -6.4355 H   0  0  0  0  0  0  0  0  0  0  0  0
   -0.2729    5.5801   -7.9628 H   0  0  0  0  0  0  0  0  0  0  0  0
    2.3806    6.0961   -6.7317 H   0  0  0  0  0  0  0  0  0  0  0  0
    1.4655    7.0012   -7.9642 H   0  0  0  0  0  0  0  0  0  0  0  0
    2.2618    3.2082   -9.8472 H   0  0  0  0  0  0  0  0  0  0  0  0
    1.0646    4.4740  -10.2284 H   0  0  0  0  0  0  0  0  0  0  0  0
  1  2  1  0  0  0  0
  1 41  1  0  0  0  0
  1 42  1  0  0  0  0
  1 43  1  0  0  0  0
  2  3  1  0  0  0  0
  2 35  1  0  0  0  0
  2 40  1  0  0  0  0
  3  4  1  0  0  0  0
  3 34  1  0  0  0  0
  4  5  2  0  0  0  0
  4 44  1  0  0  0  0
  5  6  1  0  0  0  0
  5 33  1  0  0  0  0
  6  7  1  0  0  0  0
  6 45  1  0  0  0  0
  6 46  1  0  0  0  0
  7  8  1  0  0  0  0
  7 47  1  0  0  0  0
  8  9  1  0  0  0  0
  8 48  1  0  0  0  0
  8 49  1  0  0  0  0
  9 10  1  0  0  0  0
  9 23  1  0  0  0  0
  9 32  1  0  0  0  0
 10 11  2  0  0  0  0
 10 12  1  0  0  0  0
 12 13  1  0  0  0  0
 12 50  1  0  0  0  0
 13 14  1  0  0  0  0
 13 22  2  0  0  0  0
 14 15  2  0  0  0  0
 14 51  1  0  0  0  0
 15 16  1  0  0  0  0
 16 17  2  0  0  0  0
 16 52  1  0  0  0  0
 17 18  1  0  0  0  0
 17 22  1  0  0  0  0
 18 19  2  0  0  0  0
 18 53  1  0  0  0  0
 19 20  1  0  0  0  0
 19 54  1  0  0  0  0
 20 21  2  0  0  0  0
 20 55  1  0  0  0  0
 21 22  1  0  0  0  0
 21 56  1  0  0  0  0
 23 24  1  0  0  0  0
 23 57  1  0  0  0  0
 23 58  1  0  0  0  0
 24 25  1  0  0  0  0
 24 59  1  0  0  0  0
 24 60  1  0  0  0  0
 25 26  1  0  0  0  0
 26 27  1  0  0  0  0
 26 32  2  0  0  0  0
 27 28  2  0  0  0  0
 27 61  1  0  0  0  0
 28 29  1  0  0  0  0
 28 62  1  0  0  0  0
 29 30  1  0  0  0  0
 29 31  2  0  0  0  0
 31 32  1  0  0  0  0
 31 63  1  0  0  0  0
 33 34  2  0  0  0  0
 33 64  1  0  0  0  0
 35 36  1  0  0  0  0
 35 65  1  0  0  0  0
 35 66  1  0  0  0  0
 36 37  1  0  0  0  0
 36 67  1  0  0  0  0
 36 68  1  0  0  0  0
 37 38  2  0  0  0  0
 37 39  2  0  0  0  0
 37 40  1  0  0  0  0
 40 69  1  0  0  0  0
 40 70  1  0  0  0  0
M  END
$$$$
