
 OpenBabel07202414143D

 42 45  0  0  1  0  0  0  0  0999 V2000
    1.4159   -0.1810    0.2623 C   0  0  0  0  0  0  0  0  0  0  0  0
    2.8157   -0.1631   -0.1136 N   0  0  0  0  0  0  0  0  0  0  0  0
    3.6609   -1.3354    0.0868 C   0  0  0  0  0  0  0  0  0  0  0  0
    4.5233   -1.5957   -1.1475 C   0  0  2  0  0  0  0  0  0  0  0  0
    5.5567   -2.6987   -0.9007 C   0  0  0  0  0  0  0  0  0  0  0  0
    5.4708   -3.7398   -1.5558 O   0  0  0  0  0  0  0  0  0  0  0  0
    6.5420   -2.4452    0.0432 N   0  0  0  0  0  0  0  0  0  0  0  0
    7.6458   -3.3109    0.3379 C   0  0  0  0  0  0  0  0  0  0  0  0
    8.0109   -4.3570   -0.5162 C   0  0  0  0  0  0  0  0  0  0  0  0
    8.9687   -5.2796   -0.2603 N   0  0  0  0  0  0  0  0  0  0  0  0
    9.6367   -5.1412    0.8982 C   0  0  0  0  0  0  0  0  0  0  0  0
    9.4477   -4.0918    1.7909 C   0  0  0  0  0  0  0  0  0  0  0  0
   10.2613   -3.9925    2.9319 C   0  0  0  0  0  0  0  0  0  0  0  0
   10.0938   -2.9383    3.8247 C   0  0  0  0  0  0  0  0  0  0  0  0
    9.1083   -1.9887    3.5897 C   0  0  0  0  0  0  0  0  0  0  0  0
    8.2813   -2.0886    2.4629 C   0  0  0  0  0  0  0  0  0  0  0  0
    8.4334   -3.1353    1.5184 C   0  0  0  0  0  0  0  0  0  0  0  0
    5.1238   -0.3197   -1.7063 C   0  0  0  0  0  0  0  0  0  0  0  0
    6.0827   -0.3764   -2.7326 C   0  0  0  0  0  0  0  0  0  0  0  0
    6.5796    0.7966   -3.3002 C   0  0  0  0  0  0  0  0  0  0  0  0
    7.6936    0.7026   -4.6064 Cl  0  0  0  0  0  0  0  0  0  0  0  0
    6.1509    2.0397   -2.8438 C   0  0  0  0  0  0  0  0  0  0  0  0
    5.1685    2.1132   -1.8553 C   0  0  0  0  0  0  0  0  0  0  0  0
    4.6255    0.9388   -1.3165 C   0  0  0  0  0  0  0  0  0  0  0  0
    3.3811    1.0436   -0.4998 C   0  0  0  0  0  0  0  0  0  0  0  0
    2.8578    2.1335   -0.2997 O   0  0  0  0  0  0  0  0  0  0  0  0
    1.0682   -1.2012    0.4383 H   0  0  0  0  0  0  0  0  0  0  0  0
    0.8422    0.2446   -0.5701 H   0  0  0  0  0  0  0  0  0  0  0  0
    1.2566    0.4416    1.1456 H   0  0  0  0  0  0  0  0  0  0  0  0
    3.0403   -2.2117    0.3060 H   0  0  0  0  0  0  0  0  0  0  0  0
    4.2707   -1.1377    0.9769 H   0  0  0  0  0  0  0  0  0  0  0  0
    3.8480   -1.9683   -1.9328 H   0  0  0  0  0  0  0  0  0  0  0  0
    6.4313   -1.6374    0.6390 H   0  0  0  0  0  0  0  0  0  0  0  0
    7.5592   -4.4917   -1.4931 H   0  0  0  0  0  0  0  0  0  0  0  0
   10.3632   -5.9277    1.0896 H   0  0  0  0  0  0  0  0  0  0  0  0
   11.0372   -4.7272    3.1329 H   0  0  0  0  0  0  0  0  0  0  0  0
   10.7464   -2.8450    4.6904 H   0  0  0  0  0  0  0  0  0  0  0  0
    8.9768   -1.1619    4.2822 H   0  0  0  0  0  0  0  0  0  0  0  0
    7.5274   -1.3188    2.3352 H   0  0  0  0  0  0  0  0  0  0  0  0
    6.4100   -1.3373   -3.1284 H   0  0  0  0  0  0  0  0  0  0  0  0
    6.5365    2.9527   -3.2890 H   0  0  0  0  0  0  0  0  0  0  0  0
    4.7821    3.0856   -1.5536 H   0  0  0  0  0  0  0  0  0  0  0  0
  1  2  1  0  0  0  0
  1 27  1  0  0  0  0
  1 28  1  0  0  0  0
  1 29  1  0  0  0  0
  2  3  1  0  0  0  0
  2 25  1  0  0  0  0
  3  4  1  0  0  0  0
  3 30  1  0  0  0  0
  3 31  1  0  0  0  0
  4 18  1  0  0  0  0
  4  5  1  0  0  0  0
  4 32  1  6  0  0  0
  5  6  2  0  0  0  0
  5  7  1  0  0  0  0
  7  8  1  0  0  0  0
  7 33  1  0  0  0  0
  8  9  1  0  0  0  0
  8 17  2  0  0  0  0
  9 10  2  0  0  0  0
  9 34  1  0  0  0  0
 10 11  1  0  0  0  0
 11 12  2  0  0  0  0
 11 35  1  0  0  0  0
 12 13  1  0  0  0  0
 12 17  1  0  0  0  0
 13 14  2  0  0  0  0
 13 36  1  0  0  0  0
 14 15  1  0  0  0  0
 14 37  1  0  0  0  0
 15 16  2  0  0  0  0
 15 38  1  0  0  0  0
 16 17  1  0  0  0  0
 16 39  1  0  0  0  0
 18 19  1  0  0  0  0
 18 24  2  0  0  0  0
 19 20  2  0  0  0  0
 19 40  1  0  0  0  0
 20 21  1  0  0  0  0
 20 22  1  0  0  0  0
 22 23  2  0  0  0  0
 22 41  1  0  0  0  0
 23 24  1  0  0  0  0
 23 42  1  0  0  0  0
 24 25  1  0  0  0  0
 25 26  2  0  0  0  0
M  END
$$$$
