
 OpenBabel07202414183D

 39 42  0  0  1  0  0  0  0  0999 V2000
    1.0494    0.0285    0.0911 Cl  0  0  0  0  0  0  0  0  0  0  0  0
    2.7770   -0.0430    0.0265 C   0  0  0  0  0  0  0  0  0  0  0  0
    3.4634    1.1730   -0.0353 C   0  0  0  0  0  0  0  0  0  0  0  0
    4.8541    1.1866   -0.1274 C   0  0  0  0  0  0  0  0  0  0  0  0
    5.5740   -0.0170   -0.1660 C   0  0  0  0  0  0  0  0  0  0  0  0
    4.8869   -1.2387   -0.0737 C   0  0  0  0  0  0  0  0  0  0  0  0
    3.4832   -1.2534    0.0247 C   0  0  0  0  0  0  0  0  0  0  0  0
    2.6489   -2.7733    0.1149 Cl  0  0  0  0  0  0  0  0  0  0  0  0
    5.5378   -2.4474   -0.0417 O   0  0  0  0  0  0  0  0  0  0  0  0
    6.8980   -2.4538   -0.4706 C   0  0  0  0  0  0  0  0  0  0  0  0
    7.6841   -1.2849    0.0956 C   0  0  0  0  0  0  0  0  0  0  0  0
    7.0665    0.0143   -0.4203 C   0  0  3  0  0  0  0  0  0  0  0  0
    7.3591    0.2361   -1.9212 C   0  0  0  0  0  0  0  0  0  0  0  0
    6.4597    0.2790   -2.7559 O   0  0  0  0  0  0  0  0  0  0  0  0
    8.7044    0.3906   -2.2058 N   0  0  0  0  0  0  0  0  0  0  0  0
    9.2874    0.6361   -3.4816 C   0  0  0  0  0  0  0  0  0  0  0  0
    8.5305    0.7789   -4.6488 C   0  0  0  0  0  0  0  0  0  0  0  0
    9.0413    1.0416   -5.8750 N   0  0  0  0  0  0  0  0  0  0  0  0
   10.3773    1.1823   -5.9515 C   0  0  0  0  0  0  0  0  0  0  0  0
   11.2443    1.0707   -4.8687 C   0  0  0  0  0  0  0  0  0  0  0  0
   12.6307    1.2549   -5.0388 C   0  0  0  0  0  0  0  0  0  0  0  0
   13.5007    1.1398   -3.9572 C   0  0  0  0  0  0  0  0  0  0  0  0
   12.9976    0.8223   -2.7033 C   0  0  0  0  0  0  0  0  0  0  0  0
   11.6242    0.6347   -2.5262 C   0  0  0  0  0  0  0  0  0  0  0  0
   10.7011    0.7722   -3.5953 C   0  0  0  0  0  0  0  0  0  0  0  0
    2.9187    2.1129   -0.0383 H   0  0  0  0  0  0  0  0  0  0  0  0
    5.3683    2.1423   -0.2129 H   0  0  0  0  0  0  0  0  0  0  0  0
    6.9286   -2.4798   -1.5662 H   0  0  0  0  0  0  0  0  0  0  0  0
    7.3411   -3.3915   -0.1179 H   0  0  0  0  0  0  0  0  0  0  0  0
    8.7415   -1.3734   -0.1697 H   0  0  0  0  0  0  0  0  0  0  0  0
    7.6187   -1.3025    1.1909 H   0  0  0  0  0  0  0  0  0  0  0  0
    7.5076    0.8558    0.1315 H   0  0  0  0  0  0  0  0  0  0  0  0
    9.3373    0.3593   -1.4222 H   0  0  0  0  0  0  0  0  0  0  0  0
    7.4495    0.6983   -4.6635 H   0  0  0  0  0  0  0  0  0  0  0  0
   10.7443    1.3994   -6.9521 H   0  0  0  0  0  0  0  0  0  0  0  0
   13.0396    1.4936   -6.0188 H   0  0  0  0  0  0  0  0  0  0  0  0
   14.5666    1.2973   -4.0971 H   0  0  0  0  0  0  0  0  0  0  0  0
   13.6749    0.7203   -1.8595 H   0  0  0  0  0  0  0  0  0  0  0  0
   11.3002    0.3757   -1.5221 H   0  0  0  0  0  0  0  0  0  0  0  0
  1  2  1  0  0  0  0
  2  3  1  0  0  0  0
  2  7  2  0  0  0  0
  3  4  2  0  0  0  0
  3 26  1  0  0  0  0
  4  5  1  0  0  0  0
  4 27  1  0  0  0  0
  5  6  2  0  0  0  0
  5 12  1  0  0  0  0
  6  7  1  0  0  0  0
  6  9  1  0  0  0  0
  7  8  1  0  0  0  0
  9 10  1  0  0  0  0
 10 11  1  0  0  0  0
 10 28  1  0  0  0  0
 10 29  1  0  0  0  0
 11 12  1  0  0  0  0
 11 30  1  0  0  0  0
 11 31  1  0  0  0  0
 12 13  1  0  0  0  0
 12 32  1  0  0  0  0
 13 14  2  0  0  0  0
 13 15  1  0  0  0  0
 15 16  1  0  0  0  0
 15 33  1  0  0  0  0
 16 17  1  0  0  0  0
 16 25  2  0  0  0  0
 17 18  2  0  0  0  0
 17 34  1  0  0  0  0
 18 19  1  0  0  0  0
 19 20  2  0  0  0  0
 19 35  1  0  0  0  0
 20 21  1  0  0  0  0
 20 25  1  0  0  0  0
 21 22  2  0  0  0  0
 21 36  1  0  0  0  0
 22 23  1  0  0  0  0
 22 37  1  0  0  0  0
 23 24  2  0  0  0  0
 23 38  1  0  0  0  0
 24 25  1  0  0  0  0
 24 39  1  0  0  0  0
M  END
$$$$
