
 OpenBabel07202414163D

 60 64  0  0  1  0  0  0  0  0999 V2000
    1.5020    2.0063   -0.7764 C   0  0  0  0  0  0  0  0  0  0  0  0
    2.9562    1.7815   -0.6563 C   0  0  0  0  0  0  0  0  0  0  0  0
    3.8546    2.8197   -0.6133 N   0  0  0  0  0  0  0  0  0  0  0  0
    5.0097    2.2114   -0.4699 C   0  0  0  0  0  0  0  0  0  0  0  0
    4.7998    0.8635   -0.4216 N   0  0  0  0  0  0  0  0  0  0  0  0
    3.5020    0.5595   -0.5677 N   0  0  0  0  0  0  0  0  0  0  0  0
    5.8312   -0.1490   -0.3049 C   0  0  0  0  0  0  0  0  0  0  0  0
    7.1452    0.4417    0.2513 C   0  0  3  0  0  0  0  0  0  0  0  0
    7.0464    0.5813    1.7755 C   0  0  0  0  0  0  0  0  0  0  0  0
    6.1822   -0.0005    2.4259 O   0  0  0  0  0  0  0  0  0  0  0  0
    8.0321    1.3147    2.3908 N   0  0  0  0  0  0  0  0  0  0  0  0
    8.0731    1.5813    3.8575 C   0  0  3  0  0  0  0  0  0  0  0  0
    6.7060    2.0182    4.4260 C   0  0  0  0  0  0  0  0  0  0  0  0
    8.6121    0.2619    4.5424 C   0  0  0  0  0  0  0  0  0  0  0  0
    9.8116    0.0832    4.7684 O   0  0  0  0  0  0  0  0  0  0  0  0
    7.6772   -0.7379    4.7371 N   0  0  0  0  0  0  0  0  0  0  0  0
    7.9872   -1.9450    5.4142 C   0  0  0  0  0  0  0  0  0  0  0  0
    8.6734   -1.9315    6.6313 C   0  0  0  0  0  0  0  0  0  0  0  0
    8.9230   -3.0283    7.3834 N   0  0  0  0  0  0  0  0  0  0  0  0
    8.4940   -4.2064    6.8813 C   0  0  0  0  0  0  0  0  0  0  0  0
    7.8338   -4.3542    5.6578 C   0  0  0  0  0  0  0  0  0  0  0  0
    7.4603   -5.6180    5.1677 C   0  0  0  0  0  0  0  0  0  0  0  0
    6.8547   -5.7460    3.9187 C   0  0  0  0  0  0  0  0  0  0  0  0
    6.6106   -4.6167    3.1495 C   0  0  0  0  0  0  0  0  0  0  0  0
    6.9594   -3.3560    3.6345 C   0  0  0  0  0  0  0  0  0  0  0  0
    7.5683   -3.1918    4.8993 C   0  0  0  0  0  0  0  0  0  0  0  0
    9.0437    2.7637    4.1426 C   0  0  0  0  0  0  0  0  0  0  0  0
    9.6781    2.8879    5.3959 C   0  0  0  0  0  0  0  0  0  0  0  0
   10.5949    3.9087    5.6517 C   0  0  0  0  0  0  0  0  0  0  0  0
   10.8758    4.8583    4.6714 C   0  0  0  0  0  0  0  0  0  0  0  0
   12.0516    6.0683    5.0372 Cl  0  0  0  0  0  0  0  0  0  0  0  0
   10.2098    4.7982    3.4446 C   0  0  0  0  0  0  0  0  0  0  0  0
   10.4799    5.9553    2.1896 Cl  0  0  0  0  0  0  0  0  0  0  0  0
    9.2916    3.7683    3.1889 C   0  0  0  0  0  0  0  0  0  0  0  0
    7.4621    1.7548   -0.4928 C   0  0  0  0  0  0  0  0  0  0  0  0
    6.3593    2.8067   -0.3190 C   0  0  0  0  0  0  0  0  0  0  0  0
    1.2772    3.0772   -0.8163 H   0  0  0  0  0  0  0  0  0  0  0  0
    0.9749    1.5843    0.0850 H   0  0  0  0  0  0  0  0  0  0  0  0
    1.1100    1.5437   -1.6870 H   0  0  0  0  0  0  0  0  0  0  0  0
    5.9891   -0.5379   -1.3180 H   0  0  0  0  0  0  0  0  0  0  0  0
    5.4376   -0.9626    0.3134 H   0  0  0  0  0  0  0  0  0  0  0  0
    7.9526   -0.2780    0.0650 H   0  0  0  0  0  0  0  0  0  0  0  0
    8.9323    1.3545    1.9254 H   0  0  0  0  0  0  0  0  0  0  0  0
    5.9501    1.2282    4.4050 H   0  0  0  0  0  0  0  0  0  0  0  0
    6.2976    2.8640    3.8603 H   0  0  0  0  0  0  0  0  0  0  0  0
    6.7879    2.3218    5.4765 H   0  0  0  0  0  0  0  0  0  0  0  0
    6.9041   -0.7467    4.0756 H   0  0  0  0  0  0  0  0  0  0  0  0
    9.0161   -1.0026    7.0790 H   0  0  0  0  0  0  0  0  0  0  0  0
    8.7186   -5.0679    7.5053 H   0  0  0  0  0  0  0  0  0  0  0  0
    7.6547   -6.5153    5.7508 H   0  0  0  0  0  0  0  0  0  0  0  0
    6.5825   -6.7277    3.5405 H   0  0  0  0  0  0  0  0  0  0  0  0
    6.1604   -4.7073    2.1662 H   0  0  0  0  0  0  0  0  0  0  0  0
    6.7741   -2.5029    2.9883 H   0  0  0  0  0  0  0  0  0  0  0  0
    9.4954    2.1644    6.1915 H   0  0  0  0  0  0  0  0  0  0  0  0
   11.0969    3.9435    6.6163 H   0  0  0  0  0  0  0  0  0  0  0  0
    8.7718    3.7601    2.2336 H   0  0  0  0  0  0  0  0  0  0  0  0
    7.5621    1.5272   -1.5638 H   0  0  0  0  0  0  0  0  0  0  0  0
    8.4231    2.1755   -0.1793 H   0  0  0  0  0  0  0  0  0  0  0  0
    6.4967    3.6083   -1.0538 H   0  0  0  0  0  0  0  0  0  0  0  0
    6.4346    3.2624    0.6745 H   0  0  0  0  0  0  0  0  0  0  0  0
  1  2  1  0  0  0  0
  1 37  1  0  0  0  0
  1 38  1  0  0  0  0
  1 39  1  0  0  0  0
  2  3  1  0  0  0  0
  2  6  2  0  0  0  0
  3  4  2  0  0  0  0
  4  5  1  0  0  0  0
  4 36  1  0  0  0  0
  5  6  1  0  0  0  0
  5  7  1  0  0  0  0
  7  8  1  0  0  0  0
  7 40  1  0  0  0  0
  7 41  1  0  0  0  0
  8  9  1  0  0  0  0
  8 35  1  0  0  0  0
  8 42  1  0  0  0  0
  9 10  2  0  0  0  0
  9 11  1  0  0  0  0
 11 12  1  0  0  0  0
 11 43  1  0  0  0  0
 12 13  1  0  0  0  0
 12 14  1  0  0  0  0
 12 27  1  0  0  0  0
 13 44  1  0  0  0  0
 13 45  1  0  0  0  0
 13 46  1  0  0  0  0
 14 15  2  0  0  0  0
 14 16  1  0  0  0  0
 16 17  1  0  0  0  0
 16 47  1  0  0  0  0
 17 18  1  0  0  0  0
 17 26  2  0  0  0  0
 18 19  2  0  0  0  0
 18 48  1  0  0  0  0
 19 20  1  0  0  0  0
 20 21  2  0  0  0  0
 20 49  1  0  0  0  0
 21 22  1  0  0  0  0
 21 26  1  0  0  0  0
 22 23  2  0  0  0  0
 22 50  1  0  0  0  0
 23 24  1  0  0  0  0
 23 51  1  0  0  0  0
 24 25  2  0  0  0  0
 24 52  1  0  0  0  0
 25 26  1  0  0  0  0
 25 53  1  0  0  0  0
 27 28  1  0  0  0  0
 27 34  2  0  0  0  0
 28 29  2  0  0  0  0
 28 54  1  0  0  0  0
 29 30  1  0  0  0  0
 29 55  1  0  0  0  0
 30 31  1  0  0  0  0
 30 32  2  0  0  0  0
 32 33  1  0  0  0  0
 32 34  1  0  0  0  0
 34 56  1  0  0  0  0
 35 36  1  0  0  0  0
 35 57  1  0  0  0  0
 35 58  1  0  0  0  0
 36 59  1  0  0  0  0
 36 60  1  0  0  0  0
M  END
$$$$
