
 OpenBabel07202414173D

 60 66  0  0  1  0  0  0  0  0999 V2000
    1.0348    0.5236   -0.1075 Cl  0  0  0  0  0  0  0  0  0  0  0  0
    2.7511    0.4088   -0.1082 C   0  0  0  0  0  0  0  0  0  0  0  0
    3.5313    1.5567   -0.0876 C   0  0  0  0  0  0  0  0  0  0  0  0
    4.9254    1.4490   -0.0721 C   0  0  0  0  0  0  0  0  0  0  0  0
    5.5544    0.1912   -0.0539 C   0  0  0  0  0  0  0  0  0  0  0  0
    4.7604   -0.9727   -0.0855 C   0  0  0  0  0  0  0  0  0  0  0  0
    3.3550   -0.8433   -0.1143 C   0  0  0  0  0  0  0  0  0  0  0  0
    5.4057   -2.3574    0.0275 C   0  0  3  0  0  0  0  0  0  0  0  0
    6.9369   -2.3227   -0.0911 C   0  0  0  0  0  0  0  0  0  0  0  0
    7.5481   -1.1512    0.5135 N   0  0  0  0  0  0  0  0  0  0  0  0
    8.8055   -1.3349    1.1020 C   0  0  0  0  0  0  0  0  0  0  0  0
    9.3797   -2.4208    0.9835 O   0  0  0  0  0  0  0  0  0  0  0  0
    9.3743   -0.2640    1.8896 C   0  0  0  0  0  0  0  0  0  0  0  0
    8.7373    0.7466    2.5970 C   0  0  0  0  0  0  0  0  0  0  0  0
    9.7522    1.4828    3.2192 C   0  0  0  0  0  0  0  0  0  0  0  0
   10.9536    0.9562    3.0063 N   0  0  0  0  0  0  0  0  0  0  0  0
   10.7085   -0.1256    2.2308 N   0  0  0  0  0  0  0  0  0  0  0  0
   11.8013   -0.9997    1.8278 C   0  0  0  0  0  0  0  0  0  0  0  0
   12.7639   -1.5582    2.8660 C   0  0  0  0  0  0  0  0  0  0  0  0
   13.2559   -0.5549    1.8811 C   0  0  0  0  0  0  0  0  0  0  0  0
    7.0669    0.1134   -0.0389 C   0  0  0  0  0  0  0  0  0  0  0  0
    4.8960   -3.3271   -1.0438 C   0  0  0  0  0  0  0  0  0  0  0  0
    3.9503   -4.2654   -0.3400 C   0  0  0  0  0  0  0  0  0  0  0  0
    3.9020   -3.9056    1.0407 N   0  0  0  0  0  0  0  0  0  0  0  0
    2.9273   -4.4306    1.9654 C   0  0  0  0  0  0  0  0  0  0  0  0
    2.8082   -3.8404    3.2337 C   0  0  0  0  0  0  0  0  0  0  0  0
    1.9917   -4.2603    4.2283 N   0  0  0  0  0  0  0  0  0  0  0  0
    1.1947   -5.3027    3.9425 C   0  0  0  0  0  0  0  0  0  0  0  0
    1.1007   -5.9071    2.6955 C   0  0  0  0  0  0  0  0  0  0  0  0
    0.1185   -6.8958    2.4835 C   0  0  0  0  0  0  0  0  0  0  0  0
   -0.0381   -7.5101    1.2486 C   0  0  0  0  0  0  0  0  0  0  0  0
    0.8317   -7.1861    0.2287 C   0  0  0  0  0  0  0  0  0  0  0  0
    1.8289   -6.2289    0.4445 C   0  0  0  0  0  0  0  0  0  0  0  0
    1.9942   -5.5041    1.6650 C   0  0  0  0  0  0  0  0  0  0  0  0
    4.9349   -2.9996    1.3471 C   0  0  0  0  0  0  0  0  0  0  0  0
    5.3379   -2.6672    2.4584 O   0  0  0  0  0  0  0  0  0  0  0  0
    3.0608    2.5358   -0.0739 H   0  0  0  0  0  0  0  0  0  0  0  0
    5.5188    2.3611   -0.0543 H   0  0  0  0  0  0  0  0  0  0  0  0
    2.7123   -1.7206   -0.1053 H   0  0  0  0  0  0  0  0  0  0  0  0
    7.2329   -2.2847   -1.1511 H   0  0  0  0  0  0  0  0  0  0  0  0
    7.3600   -3.2508    0.3118 H   0  0  0  0  0  0  0  0  0  0  0  0
    7.6720    0.9209    2.6631 H   0  0  0  0  0  0  0  0  0  0  0  0
    9.6650    2.3703    3.8325 H   0  0  0  0  0  0  0  0  0  0  0  0
   11.5432   -1.6942    1.0371 H   0  0  0  0  0  0  0  0  0  0  0  0
   13.0778   -2.5897    2.7516 H   0  0  0  0  0  0  0  0  0  0  0  0
   12.6403   -1.2478    3.8980 H   0  0  0  0  0  0  0  0  0  0  0  0
   13.9212   -0.8960    1.0973 H   0  0  0  0  0  0  0  0  0  0  0  0
   13.4894    0.4355    2.2573 H   0  0  0  0  0  0  0  0  0  0  0  0
    7.4256    0.1689   -1.0759 H   0  0  0  0  0  0  0  0  0  0  0  0
    7.4906    0.9757    0.4712 H   0  0  0  0  0  0  0  0  0  0  0  0
    5.7012   -3.9221   -1.4943 H   0  0  0  0  0  0  0  0  0  0  0  0
    4.3995   -2.8226   -1.8807 H   0  0  0  0  0  0  0  0  0  0  0  0
    4.3518   -5.2832   -0.4051 H   0  0  0  0  0  0  0  0  0  0  0  0
    2.9639   -4.1744   -0.7996 H   0  0  0  0  0  0  0  0  0  0  0  0
    3.3544   -2.9427    3.5083 H   0  0  0  0  0  0  0  0  0  0  0  0
    0.5916   -5.6427    4.7815 H   0  0  0  0  0  0  0  0  0  0  0  0
   -0.5626   -7.1733    3.2869 H   0  0  0  0  0  0  0  0  0  0  0  0
   -0.8247   -8.2415    1.0856 H   0  0  0  0  0  0  0  0  0  0  0  0
    0.7461   -7.6660   -0.7430 H   0  0  0  0  0  0  0  0  0  0  0  0
    2.4708   -6.0848   -0.4101 H   0  0  0  0  0  0  0  0  0  0  0  0
  1  2  1  0  0  0  0
  2  3  1  0  0  0  0
  2  7  2  0  0  0  0
  3  4  2  0  0  0  0
  3 37  1  0  0  0  0
  4  5  1  0  0  0  0
  4 38  1  0  0  0  0
  5  6  2  0  0  0  0
  5 21  1  0  0  0  0
  6  7  1  0  0  0  0
  6  8  1  0  0  0  0
  7 39  1  0  0  0  0
  8  9  1  0  0  0  0
  8 22  1  0  0  0  0
  8 35  1  0  0  0  0
  9 10  1  0  0  0  0
  9 40  1  0  0  0  0
  9 41  1  0  0  0  0
 10 11  1  0  0  0  0
 10 21  1  0  0  0  0
 11 12  2  0  0  0  0
 11 13  1  0  0  0  0
 13 14  2  0  0  0  0
 13 17  1  0  0  0  0
 14 15  1  0  0  0  0
 14 42  1  0  0  0  0
 15 16  2  0  0  0  0
 15 43  1  0  0  0  0
 16 17  1  0  0  0  0
 17 18  1  0  0  0  0
 18 19  1  0  0  0  0
 18 20  1  0  0  0  0
 18 44  1  0  0  0  0
 19 20  1  0  0  0  0
 19 45  1  0  0  0  0
 19 46  1  0  0  0  0
 20 47  1  0  0  0  0
 20 48  1  0  0  0  0
 21 49  1  0  0  0  0
 21 50  1  0  0  0  0
 22 23  1  0  0  0  0
 22 51  1  0  0  0  0
 22 52  1  0  0  0  0
 23 24  1  0  0  0  0
 23 53  1  0  0  0  0
 23 54  1  0  0  0  0
 24 25  1  0  0  0  0
 24 35  1  0  0  0  0
 25 26  1  0  0  0  0
 25 34  2  0  0  0  0
 26 27  2  0  0  0  0
 26 55  1  0  0  0  0
 27 28  1  0  0  0  0
 28 29  2  0  0  0  0
 28 56  1  0  0  0  0
 29 30  1  0  0  0  0
 29 34  1  0  0  0  0
 30 31  2  0  0  0  0
 30 57  1  0  0  0  0
 31 32  1  0  0  0  0
 31 58  1  0  0  0  0
 32 33  2  0  0  0  0
 32 59  1  0  0  0  0
 33 34  1  0  0  0  0
 33 60  1  0  0  0  0
 35 36  2  0  0  0  0
M  END
$$$$
