
 OpenBabel07202414203D

 39 42  0  0  1  0  0  0  0  0999 V2000
    4.8407   -0.6154   -0.3324 C   0  0  0  0  0  0  0  0  0  0  0  0
    4.8299    0.6878    0.1526 C   0  0  0  0  0  0  0  0  0  0  0  0
    3.6676    1.4684    0.0673 C   0  0  0  0  0  0  0  0  0  0  0  0
    2.4700    0.9674   -0.5061 C   0  0  0  0  0  0  0  0  0  0  0  0
    2.5233   -0.3660   -1.0026 C   0  0  0  0  0  0  0  0  0  0  0  0
    3.6908   -1.1405   -0.9072 C   0  0  0  0  0  0  0  0  0  0  0  0
    1.3842   -0.9060   -1.5942 C   0  0  0  0  0  0  0  0  0  0  0  0
    0.2171   -0.2554   -1.7265 N   0  0  0  0  0  0  0  0  0  0  0  0
    0.1828    1.0152   -1.2610 C   0  0  0  0  0  0  0  0  0  0  0  0
    1.2512    1.6933   -0.6547 C   0  0  0  0  0  0  0  0  0  0  0  0
    1.0975    3.0376   -0.1721 N   0  0  0  0  0  0  0  0  0  0  0  0
    0.1160    3.9028   -0.6264 C   0  0  0  0  0  0  0  0  0  0  0  0
   -0.5834    3.6767   -1.6161 O   0  0  0  0  0  0  0  0  0  0  0  0
   -0.1222    5.2082    0.1290 C   0  0  3  0  0  0  0  0  0  0  0  0
   -0.3987    5.0495    1.6182 C   0  0  0  0  0  0  0  0  0  0  0  0
   -0.9161    6.4003    2.0962 C   0  0  0  0  0  0  0  0  0  0  0  0
    0.0780    7.4183    1.9792 O   0  0  0  0  0  0  0  0  0  0  0  0
    0.7838    7.4561    0.8004 C   0  0  0  0  0  0  0  0  0  0  0  0
    0.8189    6.3711   -0.1019 C   0  0  0  0  0  0  0  0  0  0  0  0
    1.5959    6.4888   -1.2637 C   0  0  0  0  0  0  0  0  0  0  0  0
    2.3068    7.6649   -1.5221 C   0  0  0  0  0  0  0  0  0  0  0  0
    2.2541    8.7420   -0.6417 C   0  0  0  0  0  0  0  0  0  0  0  0
    1.4988    8.6329    0.5230 C   0  0  0  0  0  0  0  0  0  0  0  0
    1.4274   10.0015    1.5782 Cl  0  0  0  0  0  0  0  0  0  0  0  0
    3.2314    7.8002   -2.9672 Cl  0  0  0  0  0  0  0  0  0  0  0  0
    5.7431   -1.2188   -0.2683 H   0  0  0  0  0  0  0  0  0  0  0  0
    5.7345    1.1019    0.5930 H   0  0  0  0  0  0  0  0  0  0  0  0
    3.7232    2.4827    0.4467 H   0  0  0  0  0  0  0  0  0  0  0  0
    3.7153   -2.1601   -1.2936 H   0  0  0  0  0  0  0  0  0  0  0  0
    1.3785   -1.9170   -1.9969 H   0  0  0  0  0  0  0  0  0  0  0  0
   -0.7986    1.4647   -1.3738 H   0  0  0  0  0  0  0  0  0  0  0  0
    1.8280    3.4158    0.4154 H   0  0  0  0  0  0  0  0  0  0  0  0
   -1.0714    5.5618   -0.3104 H   0  0  0  0  0  0  0  0  0  0  0  0
    0.5163    4.7847    2.1620 H   0  0  0  0  0  0  0  0  0  0  0  0
   -1.1434    4.2680    1.8010 H   0  0  0  0  0  0  0  0  0  0  0  0
   -1.2074    6.3443    3.1497 H   0  0  0  0  0  0  0  0  0  0  0  0
   -1.8076    6.7156    1.5371 H   0  0  0  0  0  0  0  0  0  0  0  0
    1.6259    5.6851   -1.9980 H   0  0  0  0  0  0  0  0  0  0  0  0
    2.7827    9.6638   -0.8678 H   0  0  0  0  0  0  0  0  0  0  0  0
  1  2  1  0  0  0  0
  1  6  2  0  0  0  0
  1 26  1  0  0  0  0
  2  3  2  0  0  0  0
  2 27  1  0  0  0  0
  3  4  1  0  0  0  0
  3 28  1  0  0  0  0
  4  5  1  0  0  0  0
  4 10  2  0  0  0  0
  5  6  1  0  0  0  0
  5  7  2  0  0  0  0
  6 29  1  0  0  0  0
  7  8  1  0  0  0  0
  7 30  1  0  0  0  0
  8  9  2  0  0  0  0
  9 10  1  0  0  0  0
  9 31  1  0  0  0  0
 10 11  1  0  0  0  0
 11 12  1  0  0  0  0
 11 32  1  0  0  0  0
 12 13  2  0  0  0  0
 12 14  1  0  0  0  0
 14 15  1  0  0  0  0
 14 19  1  0  0  0  0
 14 33  1  0  0  0  0
 15 16  1  0  0  0  0
 15 34  1  0  0  0  0
 15 35  1  0  0  0  0
 16 17  1  0  0  0  0
 16 36  1  0  0  0  0
 16 37  1  0  0  0  0
 17 18  1  0  0  0  0
 18 19  1  0  0  0  0
 18 23  2  0  0  0  0
 19 20  2  0  0  0  0
 20 21  1  0  0  0  0
 20 38  1  0  0  0  0
 21 22  2  0  0  0  0
 21 25  1  0  0  0  0
 22 23  1  0  0  0  0
 22 39  1  0  0  0  0
 23 24  1  0  0  0  0
M  END
$$$$
