
 OpenBabel07202414113D

 37 38  0  0  0  0  0  0  0  0999 V2000
    1.2095   -0.0815    0.4380 C   0  0  0  0  0  0  0  0  0  0  0  0
    2.6842   -0.0121    0.1301 C   0  0  0  0  0  0  0  0  0  0  0  0
    3.4304   -0.8738    0.6010 O   0  0  0  0  0  0  0  0  0  0  0  0
    3.1310    1.0864   -0.6091 N   0  0  0  0  0  0  0  0  0  0  0  0
    2.2400    1.9807   -1.3811 C   0  0  0  0  0  0  0  0  0  0  0  0
    2.0643    3.4107   -0.8662 C   0  0  0  0  0  0  0  0  0  0  0  0
    2.0142    4.3567   -1.6498 O   0  0  0  0  0  0  0  0  0  0  0  0
    1.8889    3.5127    0.5033 N   0  0  0  0  0  0  0  0  0  0  0  0
    1.6669    4.7417    1.1586 C   0  0  0  0  0  0  0  0  0  0  0  0
    2.3089    4.9443    2.3841 C   0  0  0  0  0  0  0  0  0  0  0  0
    2.1835    6.1666    3.0458 C   0  0  0  0  0  0  0  0  0  0  0  0
    1.3686    7.1610    2.5137 C   0  0  0  0  0  0  0  0  0  0  0  0
    0.6825    6.9482    1.3197 C   0  0  0  0  0  0  0  0  0  0  0  0
    0.8424    5.7440    0.6308 C   0  0  0  0  0  0  0  0  0  0  0  0
   -0.3733    8.1576    0.6947 Cl  0  0  0  0  0  0  0  0  0  0  0  0
    1.2565    8.3216    3.1753 F   0  0  0  0  0  0  0  0  0  0  0  0
    4.5324    1.2235   -0.8819 C   0  0  0  0  0  0  0  0  0  0  0  0
    5.1657    2.4554   -0.6735 C   0  0  0  0  0  0  0  0  0  0  0  0
    6.5386    2.5940   -0.8851 C   0  0  0  0  0  0  0  0  0  0  0  0
    7.2895    1.5146   -1.3423 C   0  0  0  0  0  0  0  0  0  0  0  0
    6.6679    0.2838   -1.5830 C   0  0  0  0  0  0  0  0  0  0  0  0
    5.2966    0.1389   -1.3430 C   0  0  0  0  0  0  0  0  0  0  0  0
    7.4406   -0.8199   -2.0879 C   0  0  0  0  0  0  0  0  0  0  0  0
    8.0697   -1.6929   -2.5081 N   0  0  0  0  0  0  0  0  0  0  0  0
    1.0492   -0.8131    1.2380 H   0  0  0  0  0  0  0  0  0  0  0  0
    0.6498   -0.4018   -0.4416 H   0  0  0  0  0  0  0  0  0  0  0  0
    0.8449    0.8814    0.8041 H   0  0  0  0  0  0  0  0  0  0  0  0
    1.2376    1.5490   -1.4547 H   0  0  0  0  0  0  0  0  0  0  0  0
    2.6253    2.0339   -2.4075 H   0  0  0  0  0  0  0  0  0  0  0  0
    2.2848    2.7595    1.0548 H   0  0  0  0  0  0  0  0  0  0  0  0
    2.9591    4.1819    2.8051 H   0  0  0  0  0  0  0  0  0  0  0  0
    2.7244    6.3546    3.9680 H   0  0  0  0  0  0  0  0  0  0  0  0
    0.3040    5.5901   -0.3017 H   0  0  0  0  0  0  0  0  0  0  0  0
    4.6264    3.3138   -0.2880 H   0  0  0  0  0  0  0  0  0  0  0  0
    7.0215    3.5483   -0.6812 H   0  0  0  0  0  0  0  0  0  0  0  0
    8.3574    1.6399   -1.5113 H   0  0  0  0  0  0  0  0  0  0  0  0
    4.8228   -0.8223   -1.5378 H   0  0  0  0  0  0  0  0  0  0  0  0
  1  2  1  0  0  0  0
  1 25  1  0  0  0  0
  1 26  1  0  0  0  0
  1 27  1  0  0  0  0
  2  3  2  0  0  0  0
  2  4  1  0  0  0  0
  4  5  1  0  0  0  0
  4 17  1  0  0  0  0
  5  6  1  0  0  0  0
  5 28  1  0  0  0  0
  5 29  1  0  0  0  0
  6  7  2  0  0  0  0
  6  8  1  0  0  0  0
  8  9  1  0  0  0  0
  8 30  1  0  0  0  0
  9 10  1  0  0  0  0
  9 14  2  0  0  0  0
 10 11  2  0  0  0  0
 10 31  1  0  0  0  0
 11 12  1  0  0  0  0
 11 32  1  0  0  0  0
 12 13  2  0  0  0  0
 12 16  1  0  0  0  0
 13 14  1  0  0  0  0
 13 15  1  0  0  0  0
 14 33  1  0  0  0  0
 17 18  1  0  0  0  0
 17 22  2  0  0  0  0
 18 19  2  0  0  0  0
 18 34  1  0  0  0  0
 19 20  1  0  0  0  0
 19 35  1  0  0  0  0
 20 21  2  0  0  0  0
 20 36  1  0  0  0  0
 21 22  1  0  0  0  0
 21 23  1  0  0  0  0
 22 37  1  0  0  0  0
 23 24  3  0  0  0  0
M  END
$$$$
