
 OpenBabel07202414113D

 39 40  0  0  0  0  0  0  0  0999 V2000
    1.1790   -0.2369   -0.5537 C   0  0  0  0  0  0  0  0  0  0  0  0
    2.6640   -0.1012   -0.3298 C   0  0  0  0  0  0  0  0  0  0  0  0
    3.3513    0.3885   -1.2292 O   0  0  0  0  0  0  0  0  0  0  0  0
    3.1861   -0.6180    0.8619 N   0  0  0  0  0  0  0  0  0  0  0  0
    2.3569   -1.0626    1.9999 C   0  0  0  0  0  0  0  0  0  0  0  0
    2.2141   -2.5697    2.2142 C   0  0  0  0  0  0  0  0  0  0  0  0
    2.0850   -3.0258    3.3482 O   0  0  0  0  0  0  0  0  0  0  0  0
    2.1451   -3.3123    1.0498 N   0  0  0  0  0  0  0  0  0  0  0  0
    1.9478   -4.7070    1.0198 C   0  0  0  0  0  0  0  0  0  0  0  0
    2.5889   -5.4214    0.0011 C   0  0  0  0  0  0  0  0  0  0  0  0
    2.4995   -6.8127   -0.0412 C   0  0  0  0  0  0  0  0  0  0  0  0
    1.7257   -7.4824    0.9000 C   0  0  0  0  0  0  0  0  0  0  0  0
    1.0377   -6.7763    1.8857 C   0  0  0  0  0  0  0  0  0  0  0  0
    1.1546   -5.3866    1.9587 C   0  0  0  0  0  0  0  0  0  0  0  0
    0.0323   -7.6063    3.0127 Cl  0  0  0  0  0  0  0  0  0  0  0  0
    1.6568   -8.8200    0.8383 F   0  0  0  0  0  0  0  0  0  0  0  0
    4.5943   -0.4965    1.1187 C   0  0  0  0  0  0  0  0  0  0  0  0
    5.2650    0.7082    0.8716 C   0  0  0  0  0  0  0  0  0  0  0  0
    6.6464    0.8115    1.0542 C   0  0  0  0  0  0  0  0  0  0  0  0
    7.3800   -0.2989    1.4642 C   0  0  0  0  0  0  0  0  0  0  0  0
    6.7360   -1.5140    1.7283 C   0  0  0  0  0  0  0  0  0  0  0  0
    5.3329   -1.5937    1.5803 C   0  0  0  0  0  0  0  0  0  0  0  0
    7.5103   -2.7486    2.1086 C   0  0  0  0  0  0  0  0  0  0  0  0
    8.8549   -2.5488    2.1796 F   0  0  0  0  0  0  0  0  0  0  0  0
    7.1371   -3.2467    3.3183 F   0  0  0  0  0  0  0  0  0  0  0  0
    7.3296   -3.7603    1.2139 F   0  0  0  0  0  0  0  0  0  0  0  0
    0.9566    0.0117   -1.5973 H   0  0  0  0  0  0  0  0  0  0  0  0
    0.6293    0.4542    0.0879 H   0  0  0  0  0  0  0  0  0  0  0  0
    0.8556   -1.2662   -0.3895 H   0  0  0  0  0  0  0  0  0  0  0  0
    1.3415   -0.6673    1.9029 H   0  0  0  0  0  0  0  0  0  0  0  0
    2.7722   -0.6244    2.9163 H   0  0  0  0  0  0  0  0  0  0  0  0
    2.5524   -2.8846    0.2258 H   0  0  0  0  0  0  0  0  0  0  0  0
    3.2062   -4.9119   -0.7343 H   0  0  0  0  0  0  0  0  0  0  0  0
    3.0406   -7.3791   -0.7933 H   0  0  0  0  0  0  0  0  0  0  0  0
    0.6096   -4.8470    2.7274 H   0  0  0  0  0  0  0  0  0  0  0  0
    4.7198    1.5900    0.5401 H   0  0  0  0  0  0  0  0  0  0  0  0
    7.1489    1.7555    0.8545 H   0  0  0  0  0  0  0  0  0  0  0  0
    8.4628   -0.2164    1.5598 H   0  0  0  0  0  0  0  0  0  0  0  0
    4.8560   -2.5498    1.7704 H   0  0  0  0  0  0  0  0  0  0  0  0
  1  2  1  0  0  0  0
  1 27  1  0  0  0  0
  1 28  1  0  0  0  0
  1 29  1  0  0  0  0
  2  3  2  0  0  0  0
  2  4  1  0  0  0  0
  4  5  1  0  0  0  0
  4 17  1  0  0  0  0
  5  6  1  0  0  0  0
  5 30  1  0  0  0  0
  5 31  1  0  0  0  0
  6  7  2  0  0  0  0
  6  8  1  0  0  0  0
  8  9  1  0  0  0  0
  8 32  1  0  0  0  0
  9 10  1  0  0  0  0
  9 14  2  0  0  0  0
 10 11  2  0  0  0  0
 10 33  1  0  0  0  0
 11 12  1  0  0  0  0
 11 34  1  0  0  0  0
 12 13  2  0  0  0  0
 12 16  1  0  0  0  0
 13 14  1  0  0  0  0
 13 15  1  0  0  0  0
 14 35  1  0  0  0  0
 17 18  1  0  0  0  0
 17 22  2  0  0  0  0
 18 19  2  0  0  0  0
 18 36  1  0  0  0  0
 19 20  1  0  0  0  0
 19 37  1  0  0  0  0
 20 21  2  0  0  0  0
 20 38  1  0  0  0  0
 21 22  1  0  0  0  0
 21 23  1  0  0  0  0
 22 39  1  0  0  0  0
 23 24  1  0  0  0  0
 23 25  1  0  0  0  0
 23 26  1  0  0  0  0
M  END
$$$$
