
 OpenBabel07202414133D

 57 60  0  0  0  0  0  0  0  0999 V2000
    9.6827   -4.6760    0.5341 C   0  0  0  0  0  0  0  0  0  0  0  0
    9.5385   -5.3679    1.8777 C   0  0  0  0  0  0  0  0  0  0  0  0
    8.2987   -4.9302    2.4616 O   0  0  0  0  0  0  0  0  0  0  0  0
    8.3556   -3.7617    3.1451 C   0  0  0  0  0  0  0  0  0  0  0  0
    9.3854   -3.2664    3.5956 O   0  0  0  0  0  0  0  0  0  0  0  0
    7.0688   -3.0809    3.1788 C   0  0  0  0  0  0  0  0  0  0  0  0
    5.7993   -3.4896    2.6632 C   0  0  0  0  0  0  0  0  0  0  0  0
    5.2819   -4.6412    2.0356 C   0  0  0  0  0  0  0  0  0  0  0  0
    3.9455   -4.6482    1.6166 C   0  0  0  0  0  0  0  0  0  0  0  0
    3.1308   -3.5314    1.8074 C   0  0  0  0  0  0  0  0  0  0  0  0
    3.6180   -2.3791    2.4345 C   0  0  0  0  0  0  0  0  0  0  0  0
    4.9476   -2.4061    2.8494 C   0  0  0  0  0  0  0  0  0  0  0  0
    5.5982   -1.3874    3.4751 O   0  0  0  0  0  0  0  0  0  0  0  0
    6.8832   -1.7957    3.6718 C   0  0  0  0  0  0  0  0  0  0  0  0
    7.8561   -0.8610    4.3056 C   0  0  0  0  0  0  0  0  0  0  0  0
    7.2755    0.4358    4.4692 O   0  0  0  0  0  0  0  0  0  0  0  0
    8.1973    1.4342    4.6721 C   0  0  0  0  0  0  0  0  0  0  0  0
    7.7659    2.7274    4.3619 C   0  0  0  0  0  0  0  0  0  0  0  0
    8.6438    3.8189    4.4624 C   0  0  0  0  0  0  0  0  0  0  0  0
    9.9591    3.5959    4.8938 C   0  0  0  0  0  0  0  0  0  0  0  0
   10.3725    2.3131    5.2418 C   0  0  0  0  0  0  0  0  0  0  0  0
    9.4946    1.2358    5.1502 C   0  0  0  0  0  0  0  0  0  0  0  0
   11.9833    2.0506    5.7866 Cl  0  0  0  0  0  0  0  0  0  0  0  0
    8.1670    5.2218    4.1756 C   0  0  0  0  0  0  0  0  0  0  0  0
    8.9814    5.9793    3.1409 C   0  0  0  0  0  0  0  0  0  0  0  0
    9.3666    7.1243    3.3647 O   0  0  0  0  0  0  0  0  0  0  0  0
    9.1367    5.3245    1.9311 N   0  0  0  0  0  0  0  0  0  0  0  0
    9.8334    5.8887    0.8382 C   0  0  0  0  0  0  0  0  0  0  0  0
   11.0014    6.6362    1.0075 C   0  0  0  0  0  0  0  0  0  0  0  0
   11.7168    7.1825   -0.0065 N   0  0  0  0  0  0  0  0  0  0  0  0
   11.2310    6.9995   -1.2488 C   0  0  0  0  0  0  0  0  0  0  0  0
   10.0766    6.2824   -1.5259 C   0  0  0  0  0  0  0  0  0  0  0  0
    9.3589    5.7065   -0.4684 C   0  0  0  0  0  0  0  0  0  0  0  0
    8.0681    4.9948   -0.7544 C   0  0  0  0  0  0  0  0  0  0  0  0
   10.5722   -5.0237    0.0040 H   0  0  0  0  0  0  0  0  0  0  0  0
    9.7484   -3.5896    0.6583 H   0  0  0  0  0  0  0  0  0  0  0  0
    8.7997   -4.8647   -0.0869 H   0  0  0  0  0  0  0  0  0  0  0  0
   10.3915   -5.1651    2.5347 H   0  0  0  0  0  0  0  0  0  0  0  0
    9.4709   -6.4480    1.7414 H   0  0  0  0  0  0  0  0  0  0  0  0
    5.9013   -5.5183    1.8697 H   0  0  0  0  0  0  0  0  0  0  0  0
    3.5425   -5.5353    1.1318 H   0  0  0  0  0  0  0  0  0  0  0  0
    2.0991   -3.5568    1.4625 H   0  0  0  0  0  0  0  0  0  0  0  0
    2.9995   -1.5031    2.5855 H   0  0  0  0  0  0  0  0  0  0  0  0
    8.7295   -0.7970    3.6444 H   0  0  0  0  0  0  0  0  0  0  0  0
    8.1453   -1.2616    5.2842 H   0  0  0  0  0  0  0  0  0  0  0  0
    6.7364    2.8719    4.0387 H   0  0  0  0  0  0  0  0  0  0  0  0
   10.6597    4.4250    4.9770 H   0  0  0  0  0  0  0  0  0  0  0  0
    9.8469    0.2559    5.4556 H   0  0  0  0  0  0  0  0  0  0  0  0
    8.2141    5.7856    5.1162 H   0  0  0  0  0  0  0  0  0  0  0  0
    7.1195    5.2273    3.8531 H   0  0  0  0  0  0  0  0  0  0  0  0
    8.5133    4.5500    1.7419 H   0  0  0  0  0  0  0  0  0  0  0  0
   11.4334    6.7994    1.9913 H   0  0  0  0  0  0  0  0  0  0  0  0
   11.8042    7.4683   -2.0437 H   0  0  0  0  0  0  0  0  0  0  0  0
    9.7338    6.2006   -2.5523 H   0  0  0  0  0  0  0  0  0  0  0  0
    7.7619    5.1213   -1.7979 H   0  0  0  0  0  0  0  0  0  0  0  0
    7.2649    5.4089   -0.1344 H   0  0  0  0  0  0  0  0  0  0  0  0
    8.1687    3.9246   -0.5530 H   0  0  0  0  0  0  0  0  0  0  0  0
  1  2  1  0  0  0  0
  1 35  1  0  0  0  0
  1 36  1  0  0  0  0
  1 37  1  0  0  0  0
  2  3  1  0  0  0  0
  2 38  1  0  0  0  0
  2 39  1  0  0  0  0
  3  4  1  0  0  0  0
  4  5  2  0  0  0  0
  4  6  1  0  0  0  0
  6  7  1  0  0  0  0
  6 14  2  0  0  0  0
  7  8  1  0  0  0  0
  7 12  2  0  0  0  0
  8  9  2  0  0  0  0
  8 40  1  0  0  0  0
  9 10  1  0  0  0  0
  9 41  1  0  0  0  0
 10 11  2  0  0  0  0
 10 42  1  0  0  0  0
 11 12  1  0  0  0  0
 11 43  1  0  0  0  0
 12 13  1  0  0  0  0
 13 14  1  0  0  0  0
 14 15  1  0  0  0  0
 15 16  1  0  0  0  0
 15 44  1  0  0  0  0
 15 45  1  0  0  0  0
 16 17  1  0  0  0  0
 17 18  1  0  0  0  0
 17 22  2  0  0  0  0
 18 19  2  0  0  0  0
 18 46  1  0  0  0  0
 19 20  1  0  0  0  0
 19 24  1  0  0  0  0
 20 21  2  0  0  0  0
 20 47  1  0  0  0  0
 21 22  1  0  0  0  0
 21 23  1  0  0  0  0
 22 48  1  0  0  0  0
 24 25  1  0  0  0  0
 24 49  1  0  0  0  0
 24 50  1  0  0  0  0
 25 26  2  0  0  0  0
 25 27  1  0  0  0  0
 27 28  1  0  0  0  0
 27 51  1  0  0  0  0
 28 29  1  0  0  0  0
 28 33  2  0  0  0  0
 29 30  2  0  0  0  0
 29 52  1  0  0  0  0
 30 31  1  0  0  0  0
 31 32  2  0  0  0  0
 31 53  1  0  0  0  0
 32 33  1  0  0  0  0
 32 54  1  0  0  0  0
 33 34  1  0  0  0  0
 34 55  1  0  0  0  0
 34 56  1  0  0  0  0
 34 57  1  0  0  0  0
M  END
$$$$
