
 OpenBabel07202414183D

 37 39  0  0  0  0  0  0  0  0999 V2000
    1.1146   -0.7021   -0.5819 F   0  0  0  0  0  0  0  0  0  0  0  0
    2.2108   -0.0520   -0.0988 C   0  0  0  0  0  0  0  0  0  0  0  0
    1.8619    1.2632   -0.0388 F   0  0  0  0  0  0  0  0  0  0  0  0
    2.6745   -0.5945    1.2296 C   0  0  0  0  0  0  0  0  0  0  0  0
    3.3350    0.2349    2.1382 C   0  0  0  0  0  0  0  0  0  0  0  0
    3.7616   -0.2633    3.3728 C   0  0  0  0  0  0  0  0  0  0  0  0
    3.5518   -1.6075    3.7398 C   0  0  0  0  0  0  0  0  0  0  0  0
    3.9829   -2.1785    4.9656 C   0  0  0  0  0  0  0  0  0  0  0  0
    4.5437   -1.3619    5.9794 N   0  0  0  0  0  0  0  0  0  0  0  0
    5.6420   -1.7442    6.7315 C   0  0  0  0  0  0  0  0  0  0  0  0
    6.2715   -2.7868    6.5708 O   0  0  0  0  0  0  0  0  0  0  0  0
    6.0528   -0.7206    7.7785 C   0  0  0  0  0  0  0  0  0  0  0  0
    6.8108    0.4546    7.2070 C   0  0  0  0  0  0  0  0  0  0  0  0
    8.0303    0.2631    6.5399 C   0  0  0  0  0  0  0  0  0  0  0  0
    8.7224    1.3480    5.9947 C   0  0  0  0  0  0  0  0  0  0  0  0
    8.2085    2.6383    6.1166 C   0  0  0  0  0  0  0  0  0  0  0  0
    7.0131    2.8397    6.8020 C   0  0  0  0  0  0  0  0  0  0  0  0
    6.3805    4.4316    6.9663 Cl  0  0  0  0  0  0  0  0  0  0  0  0
    6.3171    1.7601    7.3503 C   0  0  0  0  0  0  0  0  0  0  0  0
    3.7897   -3.5469    5.1642 C   0  0  0  0  0  0  0  0  0  0  0  0
    3.1870   -4.3718    4.2784 N   0  0  0  0  0  0  0  0  0  0  0  0
    2.7722   -3.8093    3.1229 C   0  0  0  0  0  0  0  0  0  0  0  0
    2.9281   -2.4600    2.7960 C   0  0  0  0  0  0  0  0  0  0  0  0
    2.4904   -1.9443    1.5592 C   0  0  0  0  0  0  0  0  0  0  0  0
    3.0099   -0.1513   -0.8392 H   0  0  0  0  0  0  0  0  0  0  0  0
    3.5212    1.2792    1.8928 H   0  0  0  0  0  0  0  0  0  0  0  0
    4.2910    0.4230    4.0286 H   0  0  0  0  0  0  0  0  0  0  0  0
    4.3409   -0.3725    5.9465 H   0  0  0  0  0  0  0  0  0  0  0  0
    6.6728   -1.2245    8.5295 H   0  0  0  0  0  0  0  0  0  0  0  0
    5.1496   -0.3842    8.3022 H   0  0  0  0  0  0  0  0  0  0  0  0
    8.4524   -0.7371    6.4393 H   0  0  0  0  0  0  0  0  0  0  0  0
    9.6628    1.1850    5.4733 H   0  0  0  0  0  0  0  0  0  0  0  0
    8.7449    3.4774    5.6826 H   0  0  0  0  0  0  0  0  0  0  0  0
    5.3935    1.9434    7.8944 H   0  0  0  0  0  0  0  0  0  0  0  0
    4.0751   -4.0291    6.0971 H   0  0  0  0  0  0  0  0  0  0  0  0
    2.2965   -4.5070    2.4362 H   0  0  0  0  0  0  0  0  0  0  0  0
    1.9977   -2.6028    0.8438 H   0  0  0  0  0  0  0  0  0  0  0  0
  1  2  1  0  0  0  0
  2  3  1  0  0  0  0
  2  4  1  0  0  0  0
  2 25  1  0  0  0  0
  4  5  1  0  0  0  0
  4 24  2  0  0  0  0
  5  6  2  0  0  0  0
  5 26  1  0  0  0  0
  6  7  1  0  0  0  0
  6 27  1  0  0  0  0
  7  8  1  0  0  0  0
  7 23  2  0  0  0  0
  8  9  1  0  0  0  0
  8 20  2  0  0  0  0
  9 10  1  0  0  0  0
  9 28  1  0  0  0  0
 10 11  2  0  0  0  0
 10 12  1  0  0  0  0
 12 13  1  0  0  0  0
 12 29  1  0  0  0  0
 12 30  1  0  0  0  0
 13 14  1  0  0  0  0
 13 19  2  0  0  0  0
 14 15  2  0  0  0  0
 14 31  1  0  0  0  0
 15 16  1  0  0  0  0
 15 32  1  0  0  0  0
 16 17  2  0  0  0  0
 16 33  1  0  0  0  0
 17 18  1  0  0  0  0
 17 19  1  0  0  0  0
 19 34  1  0  0  0  0
 20 21  1  0  0  0  0
 20 35  1  0  0  0  0
 21 22  2  0  0  0  0
 22 23  1  0  0  0  0
 22 36  1  0  0  0  0
 23 24  1  0  0  0  0
 24 37  1  0  0  0  0
M  END
$$$$
