
 OpenBabel07202414183D

 63 67  0  0  1  0  0  0  0  0999 V2000
   -0.8430    0.5491    2.6546 Cl  0  0  0  0  0  0  0  0  0  0  0  0
    0.1457    0.3053    1.2672 C   0  0  0  0  0  0  0  0  0  0  0  0
    0.1294    1.2416    0.2370 C   0  0  0  0  0  0  0  0  0  0  0  0
    0.9308    1.0455   -0.8843 C   0  0  0  0  0  0  0  0  0  0  0  0
    1.7292   -0.0966   -0.9823 C   0  0  0  0  0  0  0  0  0  0  0  0
    1.7374   -1.0616    0.0390 C   0  0  0  0  0  0  0  0  0  0  0  0
    2.5141   -2.3599   -0.1002 C   0  0  3  0  0  0  0  0  0  0  0  0
    2.0004   -3.1208   -1.2357 N   0  0  0  0  0  0  0  0  0  0  0  0
    1.5995   -4.4263   -1.1263 C   0  0  0  0  0  0  0  0  0  0  0  0
    1.5408   -5.0052   -0.0408 O   0  0  0  0  0  0  0  0  0  0  0  0
    1.2058   -5.0918   -2.4643 C   0  0  2  0  0  0  0  0  0  0  0  0
    1.3361   -6.6005   -2.3692 C   0  0  0  0  0  0  0  0  0  0  0  0
    1.7402   -7.0075   -3.7583 C   0  0  0  0  0  0  0  0  0  0  0  0
    2.5574   -5.8201   -4.2322 C   0  0  1  0  0  0  0  0  0  0  0  0
    2.5507   -5.6578   -5.7704 C   0  0  0  0  0  0  0  0  0  0  0  0
    1.6945   -6.1932   -6.4808 O   0  0  0  0  0  0  0  0  0  0  0  0
    3.5594   -4.8895   -6.3103 N   0  0  0  0  0  0  0  0  0  0  0  0
    4.6320   -4.2276   -5.5959 C   0  0  0  0  0  0  0  0  0  0  0  0
    4.9569   -3.0500   -6.4918 C   0  0  0  0  0  0  0  0  0  0  0  0
    4.7760   -3.6192   -7.8963 C   0  0  0  0  0  0  0  0  0  0  0  0
    3.7010   -4.6952   -7.7426 C   0  0  0  0  0  0  0  0  0  0  0  0
    2.0532   -4.6610   -3.5425 O   0  0  0  0  0  0  0  0  0  0  0  0
    4.0378   -2.1527   -0.3120 C   0  0  0  0  0  0  0  0  0  0  0  0
    4.4837   -1.4117   -1.1888 O   0  0  0  0  0  0  0  0  0  0  0  0
    4.8402   -3.0002    0.4468 N   0  0  0  0  0  0  0  0  0  0  0  0
    6.2530   -3.0104    0.2973 C   0  0  0  0  0  0  0  0  0  0  0  0
    6.9769   -1.8159    0.2943 C   0  0  0  0  0  0  0  0  0  0  0  0
    8.3230   -1.7348    0.1825 N   0  0  0  0  0  0  0  0  0  0  0  0
    8.9787   -2.9081    0.0382 C   0  0  0  0  0  0  0  0  0  0  0  0
    8.3754   -4.1660    0.0119 C   0  0  0  0  0  0  0  0  0  0  0  0
    9.1242   -5.3394   -0.1801 C   0  0  0  0  0  0  0  0  0  0  0  0
    8.4947   -6.5803   -0.2429 C   0  0  0  0  0  0  0  0  0  0  0  0
    7.1146   -6.6627   -0.1154 C   0  0  0  0  0  0  0  0  0  0  0  0
    6.3586   -5.5024    0.0820 C   0  0  0  0  0  0  0  0  0  0  0  0
    6.9652   -4.2262    0.1575 C   0  0  0  0  0  0  0  0  0  0  0  0
    0.9432   -0.8373    1.1770 C   0  0  0  0  0  0  0  0  0  0  0  0
   -0.5060    2.1206    0.2980 H   0  0  0  0  0  0  0  0  0  0  0  0
    0.9292    1.7731   -1.6917 H   0  0  0  0  0  0  0  0  0  0  0  0
    2.3391   -0.2307   -1.8748 H   0  0  0  0  0  0  0  0  0  0  0  0
    2.3801   -2.9480    0.8158 H   0  0  0  0  0  0  0  0  0  0  0  0
    2.1543   -2.7548   -2.1717 H   0  0  0  0  0  0  0  0  0  0  0  0
    0.1781   -4.7931   -2.7059 H   0  0  0  0  0  0  0  0  0  0  0  0
    0.4123   -7.0810   -2.0313 H   0  0  0  0  0  0  0  0  0  0  0  0
    2.1283   -6.8838   -1.6652 H   0  0  0  0  0  0  0  0  0  0  0  0
    0.8516   -7.1796   -4.3726 H   0  0  0  0  0  0  0  0  0  0  0  0
    2.3300   -7.9295   -3.7658 H   0  0  0  0  0  0  0  0  0  0  0  0
    3.5933   -5.9642   -3.9036 H   0  0  0  0  0  0  0  0  0  0  0  0
    5.4705   -4.9336   -5.5482 H   0  0  0  0  0  0  0  0  0  0  0  0
    4.3554   -3.9281   -4.5845 H   0  0  0  0  0  0  0  0  0  0  0  0
    5.9583   -2.6483   -6.3163 H   0  0  0  0  0  0  0  0  0  0  0  0
    4.2284   -2.2473   -6.3237 H   0  0  0  0  0  0  0  0  0  0  0  0
    5.7137   -4.0674   -8.2444 H   0  0  0  0  0  0  0  0  0  0  0  0
    4.4881   -2.8483   -8.6179 H   0  0  0  0  0  0  0  0  0  0  0  0
    4.0278   -5.6399   -8.1931 H   0  0  0  0  0  0  0  0  0  0  0  0
    2.7436   -4.4084   -8.1867 H   0  0  0  0  0  0  0  0  0  0  0  0
    4.4005   -3.8468    0.7896 H   0  0  0  0  0  0  0  0  0  0  0  0
    6.4859   -0.8562    0.4207 H   0  0  0  0  0  0  0  0  0  0  0  0
   10.0631   -2.8002   -0.0681 H   0  0  0  0  0  0  0  0  0  0  0  0
   10.2065   -5.2903   -0.2881 H   0  0  0  0  0  0  0  0  0  0  0  0
    9.0816   -7.4809   -0.4020 H   0  0  0  0  0  0  0  0  0  0  0  0
    6.6167   -7.6275   -0.1843 H   0  0  0  0  0  0  0  0  0  0  0  0
    5.2820   -5.6173    0.1487 H   0  0  0  0  0  0  0  0  0  0  0  0
    0.9244   -1.5626    1.9879 H   0  0  0  0  0  0  0  0  0  0  0  0
  1  2  1  0  0  0  0
  2  3  1  0  0  0  0
  2 36  2  0  0  0  0
  3  4  2  0  0  0  0
  3 37  1  0  0  0  0
  4  5  1  0  0  0  0
  4 38  1  0  0  0  0
  5  6  2  0  0  0  0
  5 39  1  0  0  0  0
  6  7  1  0  0  0  0
  6 36  1  0  0  0  0
  7  8  1  0  0  0  0
  7 23  1  0  0  0  0
  7 40  1  0  0  0  0
  8  9  1  0  0  0  0
  8 41  1  0  0  0  0
  9 10  2  0  0  0  0
  9 11  1  0  0  0  0
 11 12  1  0  0  0  0
 11 22  1  0  0  0  0
 11 42  1  6  0  0  0
 12 13  1  0  0  0  0
 12 43  1  0  0  0  0
 12 44  1  0  0  0  0
 13 14  1  0  0  0  0
 13 45  1  0  0  0  0
 13 46  1  0  0  0  0
 14 15  1  0  0  0  0
 14 22  1  0  0  0  0
 14 47  1  1  0  0  0
 15 16  2  0  0  0  0
 15 17  1  0  0  0  0
 17 18  1  0  0  0  0
 17 21  1  0  0  0  0
 18 19  1  0  0  0  0
 18 48  1  0  0  0  0
 18 49  1  0  0  0  0
 19 20  1  0  0  0  0
 19 50  1  0  0  0  0
 19 51  1  0  0  0  0
 20 21  1  0  0  0  0
 20 52  1  0  0  0  0
 20 53  1  0  0  0  0
 21 54  1  0  0  0  0
 21 55  1  0  0  0  0
 23 24  2  0  0  0  0
 23 25  1  0  0  0  0
 25 26  1  0  0  0  0
 25 56  1  0  0  0  0
 26 27  1  0  0  0  0
 26 35  2  0  0  0  0
 27 28  2  0  0  0  0
 27 57  1  0  0  0  0
 28 29  1  0  0  0  0
 29 30  2  0  0  0  0
 29 58  1  0  0  0  0
 30 31  1  0  0  0  0
 30 35  1  0  0  0  0
 31 32  2  0  0  0  0
 31 59  1  0  0  0  0
 32 33  1  0  0  0  0
 32 60  1  0  0  0  0
 33 34  2  0  0  0  0
 33 61  1  0  0  0  0
 34 35  1  0  0  0  0
 34 62  1  0  0  0  0
 36 63  1  0  0  0  0
M  END
$$$$
