
 OpenBabel07202414193D

 95101  0  0  1  0  0  0  0  0999 V2000
    2.4246   -0.2365   -2.4817 O   0  0  0  0  0  0  0  0  0  0  0  0
    1.9902    0.3497   -1.4924 C   0  0  0  0  0  0  0  0  0  0  0  0
    0.4942    0.4125   -1.1442 C   0  0  0  0  0  0  0  0  0  0  0  0
   -0.0055    1.8187   -1.1401 N   0  0  0  0  0  0  0  0  0  0  0  0
    0.1698    2.3707   -2.4939 C   0  0  0  0  0  0  0  0  0  0  0  0
   -0.4081    3.7586   -2.6613 C   0  0  0  0  0  0  0  0  0  0  0  0
    0.1181    4.5990   -3.6566 C   0  0  0  0  0  0  0  0  0  0  0  0
   -0.4326    5.8418   -3.9375 C   0  0  0  0  0  0  0  0  0  0  0  0
   -1.4781    6.2951   -3.1545 C   0  0  0  0  0  0  0  0  0  0  0  0
   -2.1115    7.8677   -3.4211 Cl  0  0  0  0  0  0  0  0  0  0  0  0
   -1.9992    5.4876   -2.1350 C   0  0  0  0  0  0  0  0  0  0  0  0
   -1.5045    4.1897   -1.9020 C   0  0  0  0  0  0  0  0  0  0  0  0
   -2.0455    3.2893   -0.7881 C   0  0  1  0  0  0  0  0  0  0  0  0
   -3.5965    3.2297   -0.7738 C   0  0  0  0  0  0  0  0  0  0  0  0
   -4.2118    2.3614   -1.3862 O   0  0  0  0  0  0  0  0  0  0  0  0
   -4.1627    4.2538   -0.0293 N   0  0  0  0  0  0  0  0  0  0  0  0
   -5.5329    4.6406    0.0361 C   0  0  0  0  0  0  0  0  0  0  0  0
   -6.5394    3.9956   -0.6817 C   0  0  0  0  0  0  0  0  0  0  0  0
   -7.8088    4.4547   -0.8052 N   0  0  0  0  0  0  0  0  0  0  0  0
   -8.1184    5.5753   -0.1221 C   0  0  0  0  0  0  0  0  0  0  0  0
   -7.2527    6.2273    0.7503 C   0  0  0  0  0  0  0  0  0  0  0  0
   -7.7052    7.2949    1.5496 C   0  0  0  0  0  0  0  0  0  0  0  0
   -6.8437    7.9337    2.4363 C   0  0  0  0  0  0  0  0  0  0  0  0
   -5.5144    7.5416    2.4990 C   0  0  0  0  0  0  0  0  0  0  0  0
   -5.0544    6.4854    1.7034 C   0  0  0  0  0  0  0  0  0  0  0  0
   -5.9125    5.7741    0.8229 C   0  0  0  0  0  0  0  0  0  0  0  0
   -1.4643    1.8429   -0.8452 C   0  0  0  0  0  0  0  0  0  0  0  0
    2.8116    1.0184   -0.5967 N   0  0  0  0  0  0  0  0  0  0  0  0
    4.2542    1.0131   -0.7197 C   0  0  0  0  0  0  0  0  0  0  0  0
    4.8120    2.1462   -1.5865 C   0  0  0  0  0  0  0  0  0  0  0  0
    6.2396    2.1405   -1.6646 O   0  0  0  0  0  0  0  0  0  0  0  0
    6.8454    0.9984   -2.2891 C   0  0  0  0  0  0  0  0  0  0  0  0
    6.3688    0.7216   -3.7196 C   0  0  0  0  0  0  0  0  0  0  0  0
    6.6753    1.8382   -4.5612 O   0  0  0  0  0  0  0  0  0  0  0  0
    6.0843    1.7717   -5.8678 C   0  0  0  0  0  0  0  0  0  0  0  0
    4.5660    1.9511   -5.7894 C   0  0  0  0  0  0  0  0  0  0  0  0
    3.9394    2.1277   -7.0703 O   0  0  0  0  0  0  0  0  0  0  0  0
    2.5977    1.8710   -6.9747 C   0  0  0  0  0  0  0  0  0  0  0  0
    1.7628    2.4223   -6.0202 C   0  0  0  0  0  0  0  0  0  0  0  0
    0.4584    1.9107   -5.8322 C   0  0  0  0  0  0  0  0  0  0  0  0
    0.0620    0.7062   -6.4164 C   0  0  0  0  0  0  0  0  0  0  0  0
    0.9311    0.1814   -7.3464 C   0  0  0  0  0  0  0  0  0  0  0  0
    2.0413    0.8889   -7.7435 C   0  0  0  0  0  0  0  0  0  0  0  0
    2.5923    0.2173   -8.8818 C   0  0  0  0  0  0  0  0  0  0  0  0
    3.0954    0.7807   -9.8304 O   0  0  0  0  0  0  0  0  0  0  0  0
    2.1912   -1.0669   -8.7588 N   0  0  0  0  0  0  0  0  0  0  0  0
    2.9281   -2.0436   -9.5201 C   0  0  2  0  0  0  0  0  0  0  0  0
    2.1474   -2.7205  -10.6153 C   0  0  0  0  0  0  0  0  0  0  0  0
    1.3997   -3.9210  -10.0928 C   0  0  0  0  0  0  0  0  0  0  0  0
    2.3374   -4.8774   -9.3872 C   0  0  0  0  0  0  0  0  0  0  0  0
    2.1706   -6.0887   -9.4048 O   0  0  0  0  0  0  0  0  0  0  0  0
    3.3751   -4.3129   -8.6871 N   0  0  0  0  0  0  0  0  0  0  0  0
    3.7261   -2.9908   -8.6191 C   0  0  0  0  0  0  0  0  0  0  0  0
    4.6319   -2.6005   -7.8794 O   0  0  0  0  0  0  0  0  0  0  0  0
    1.0705   -1.1564   -7.9652 C   0  0  0  0  0  0  0  0  0  0  0  0
    0.3753   -2.1142   -7.7199 O   0  0  0  0  0  0  0  0  0  0  0  0
    0.3685   -0.0376   -0.1538 H   0  0  0  0  0  0  0  0  0  0  0  0
   -0.0496   -0.2125   -1.8672 H   0  0  0  0  0  0  0  0  0  0  0  0
   -0.3211    1.7058   -3.2143 H   0  0  0  0  0  0  0  0  0  0  0  0
    1.2362    2.4184   -2.7424 H   0  0  0  0  0  0  0  0  0  0  0  0
    0.9744    4.2935   -4.2372 H   0  0  0  0  0  0  0  0  0  0  0  0
   -0.0307    6.4406   -4.7499 H   0  0  0  0  0  0  0  0  0  0  0  0
   -2.8004    5.8996   -1.5353 H   0  0  0  0  0  0  0  0  0  0  0  0
   -1.7039    3.7312    0.1575 H   0  0  0  0  0  0  0  0  0  0  0  0
   -3.5141    4.8835    0.4187 H   0  0  0  0  0  0  0  0  0  0  0  0
   -6.3722    3.0676   -1.2169 H   0  0  0  0  0  0  0  0  0  0  0  0
   -9.1266    5.9443   -0.2980 H   0  0  0  0  0  0  0  0  0  0  0  0
   -8.7453    7.6127    1.5114 H   0  0  0  0  0  0  0  0  0  0  0  0
   -7.2120    8.7279    3.0819 H   0  0  0  0  0  0  0  0  0  0  0  0
   -4.8332    8.0456    3.1801 H   0  0  0  0  0  0  0  0  0  0  0  0
   -4.0107    6.2110    1.8201 H   0  0  0  0  0  0  0  0  0  0  0  0
   -2.0055    1.2330   -1.5829 H   0  0  0  0  0  0  0  0  0  0  0  0
   -1.6409    1.3727    0.1312 H   0  0  0  0  0  0  0  0  0  0  0  0
    2.3592    1.6338    0.0675 H   0  0  0  0  0  0  0  0  0  0  0  0
    4.5596    0.0428   -1.1234 H   0  0  0  0  0  0  0  0  0  0  0  0
    4.6691    1.0822    0.2907 H   0  0  0  0  0  0  0  0  0  0  0  0
    4.5329    3.1059   -1.1344 H   0  0  0  0  0  0  0  0  0  0  0  0
    4.3738    2.1563   -2.5891 H   0  0  0  0  0  0  0  0  0  0  0  0
    6.6887    0.1179   -1.6572 H   0  0  0  0  0  0  0  0  0  0  0  0
    7.9233    1.1928   -2.3005 H   0  0  0  0  0  0  0  0  0  0  0  0
    5.2948    0.5311   -3.6989 H   0  0  0  0  0  0  0  0  0  0  0  0
    6.8647   -0.1706   -4.1153 H   0  0  0  0  0  0  0  0  0  0  0  0
    6.3719    0.8387   -6.3666 H   0  0  0  0  0  0  0  0  0  0  0  0
    6.5160    2.5875   -6.4581 H   0  0  0  0  0  0  0  0  0  0  0  0
    4.3634    2.8309   -5.1703 H   0  0  0  0  0  0  0  0  0  0  0  0
    4.1410    1.0720   -5.2879 H   0  0  0  0  0  0  0  0  0  0  0  0
    2.1480    3.2335   -5.4164 H   0  0  0  0  0  0  0  0  0  0  0  0
   -0.2311    2.4219   -5.1743 H   0  0  0  0  0  0  0  0  0  0  0  0
   -0.8712    0.2204   -6.1277 H   0  0  0  0  0  0  0  0  0  0  0  0
    3.7284   -1.4915  -10.0349 H   0  0  0  0  0  0  0  0  0  0  0  0
    2.8667   -3.0554  -11.3781 H   0  0  0  0  0  0  0  0  0  0  0  0
    1.4758   -2.0053  -11.1068 H   0  0  0  0  0  0  0  0  0  0  0  0
    0.9291   -4.4365  -10.9334 H   0  0  0  0  0  0  0  0  0  0  0  0
    0.6072   -3.6373   -9.4014 H   0  0  0  0  0  0  0  0  0  0  0  0
    3.9502   -4.9517   -8.1567 H   0  0  0  0  0  0  0  0  0  0  0  0
  1  2  2  0  0  0  0
  2  3  1  0  0  0  0
  2 28  1  0  0  0  0
  3  4  1  0  0  0  0
  3 57  1  0  0  0  0
  3 58  1  0  0  0  0
  4  5  1  0  0  0  0
  4 27  1  0  0  0  0
  5  6  1  0  0  0  0
  5 59  1  0  0  0  0
  5 60  1  0  0  0  0
  6  7  1  0  0  0  0
  6 12  2  0  0  0  0
  7  8  2  0  0  0  0
  7 61  1  0  0  0  0
  8  9  1  0  0  0  0
  8 62  1  0  0  0  0
  9 10  1  0  0  0  0
  9 11  2  0  0  0  0
 11 12  1  0  0  0  0
 11 63  1  0  0  0  0
 12 13  1  0  0  0  0
 13 27  1  0  0  0  0
 13 14  1  0  0  0  0
 13 64  1  1  0  0  0
 14 15  2  0  0  0  0
 14 16  1  0  0  0  0
 16 17  1  0  0  0  0
 16 65  1  0  0  0  0
 17 18  1  0  0  0  0
 17 26  2  0  0  0  0
 18 19  2  0  0  0  0
 18 66  1  0  0  0  0
 19 20  1  0  0  0  0
 20 21  2  0  0  0  0
 20 67  1  0  0  0  0
 21 22  1  0  0  0  0
 21 26  1  0  0  0  0
 22 23  2  0  0  0  0
 22 68  1  0  0  0  0
 23 24  1  0  0  0  0
 23 69  1  0  0  0  0
 24 25  2  0  0  0  0
 24 70  1  0  0  0  0
 25 26  1  0  0  0  0
 25 71  1  0  0  0  0
 27 72  1  0  0  0  0
 27 73  1  0  0  0  0
 28 29  1  0  0  0  0
 28 74  1  0  0  0  0
 29 30  1  0  0  0  0
 29 75  1  0  0  0  0
 29 76  1  0  0  0  0
 30 31  1  0  0  0  0
 30 77  1  0  0  0  0
 30 78  1  0  0  0  0
 31 32  1  0  0  0  0
 32 33  1  0  0  0  0
 32 79  1  0  0  0  0
 32 80  1  0  0  0  0
 33 34  1  0  0  0  0
 33 81  1  0  0  0  0
 33 82  1  0  0  0  0
 34 35  1  0  0  0  0
 35 36  1  0  0  0  0
 35 83  1  0  0  0  0
 35 84  1  0  0  0  0
 36 37  1  0  0  0  0
 36 85  1  0  0  0  0
 36 86  1  0  0  0  0
 37 38  1  0  0  0  0
 38 39  1  0  0  0  0
 38 43  2  0  0  0  0
 39 40  2  0  0  0  0
 39 87  1  0  0  0  0
 40 41  1  0  0  0  0
 40 88  1  0  0  0  0
 41 42  2  0  0  0  0
 41 89  1  0  0  0  0
 42 43  1  0  0  0  0
 42 55  1  0  0  0  0
 43 44  1  0  0  0  0
 44 45  2  0  0  0  0
 44 46  1  0  0  0  0
 46 47  1  0  0  0  0
 46 55  1  0  0  0  0
 47 48  1  0  0  0  0
 47 53  1  0  0  0  0
 47 90  1  6  0  0  0
 48 49  1  0  0  0  0
 48 91  1  0  0  0  0
 48 92  1  0  0  0  0
 49 50  1  0  0  0  0
 49 93  1  0  0  0  0
 49 94  1  0  0  0  0
 50 51  2  0  0  0  0
 50 52  1  0  0  0  0
 52 53  1  0  0  0  0
 52 95  1  0  0  0  0
 53 54  2  0  0  0  0
 55 56  2  0  0  0  0
M  END
$$$$
