
 OpenBabel07202414133D

 59 64  0  0  1  0  0  0  0  0999 V2000
    4.6032    3.2506    4.1280 C   0  0  0  0  0  0  0  0  0  0  0  0
    4.1244    2.8680    2.7375 C   0  0  0  0  0  0  0  0  0  0  0  0
    5.0902    2.0339    2.0407 N   0  0  0  0  0  0  0  0  0  0  0  0
    6.1052    2.6498    1.3925 N   0  0  0  0  0  0  0  0  0  0  0  0
    6.8532    1.6478    0.9423 C   0  0  0  0  0  0  0  0  0  0  0  0
    6.3161    0.3974    1.2840 C   0  0  0  0  0  0  0  0  0  0  0  0
    5.1061    0.6587    1.9156 C   0  0  0  0  0  0  0  0  0  0  0  0
    4.0922   -0.2387    2.4456 C   0  0  0  0  0  0  0  0  0  0  0  0
    3.5445    0.0059    3.5199 O   0  0  0  0  0  0  0  0  0  0  0  0
    3.7476   -1.3923    1.7186 N   0  0  0  0  0  0  0  0  0  0  0  0
    4.3767   -1.7734    0.4677 C   0  0  0  0  0  0  0  0  0  0  0  0
    3.5269   -2.6310   -0.4270 C   0  0  0  0  0  0  0  0  0  0  0  0
    3.8934   -2.7265   -1.7877 C   0  0  0  0  0  0  0  0  0  0  0  0
    3.1280   -3.4625   -2.6887 C   0  0  0  0  0  0  0  0  0  0  0  0
    2.0059   -4.1331   -2.2343 C   0  0  0  0  0  0  0  0  0  0  0  0
    1.0250   -5.0206   -3.3297 Cl  0  0  0  0  0  0  0  0  0  0  0  0
    1.6548   -4.0751   -0.8855 C   0  0  0  0  0  0  0  0  0  0  0  0
    2.4052   -3.3285    0.0471 C   0  0  0  0  0  0  0  0  0  0  0  0
    1.9406   -3.1768    1.5054 C   0  0  3  0  0  0  0  0  0  0  0  0
    1.6245   -4.5458    2.1587 C   0  0  0  0  0  0  0  0  0  0  0  0
    0.1107   -4.6646    2.2015 C   0  0  0  0  0  0  0  0  0  0  0  0
   -0.3976   -3.5308    1.4774 N   0  0  0  0  0  0  0  0  0  0  0  0
   -1.7883   -3.3907    1.1863 C   0  0  0  0  0  0  0  0  0  0  0  0
   -2.4530   -2.1995    1.4848 C   0  0  0  0  0  0  0  0  0  0  0  0
   -3.7876   -2.0083    1.3654 N   0  0  0  0  0  0  0  0  0  0  0  0
   -4.4972   -3.0279    0.8455 C   0  0  0  0  0  0  0  0  0  0  0  0
   -3.9457   -4.2182    0.3777 C   0  0  0  0  0  0  0  0  0  0  0  0
   -4.7552   -5.1610   -0.2865 C   0  0  0  0  0  0  0  0  0  0  0  0
   -4.2088   -6.3232   -0.8212 C   0  0  0  0  0  0  0  0  0  0  0  0
   -2.8525   -6.5626   -0.6809 C   0  0  0  0  0  0  0  0  0  0  0  0
   -2.0462   -5.6307   -0.0154 C   0  0  0  0  0  0  0  0  0  0  0  0
   -2.5552   -4.4280    0.5514 C   0  0  0  0  0  0  0  0  0  0  0  0
    0.5602   -2.4928    1.4928 C   0  0  0  0  0  0  0  0  0  0  0  0
    0.3672   -1.2966    1.3487 O   0  0  0  0  0  0  0  0  0  0  0  0
    2.9742   -2.4375    2.3870 C   0  0  0  0  0  0  0  0  0  0  0  0
    3.8147    3.7828    4.6718 H   0  0  0  0  0  0  0  0  0  0  0  0
    5.4775    3.9072    4.0721 H   0  0  0  0  0  0  0  0  0  0  0  0
    4.8893    2.3692    4.7103 H   0  0  0  0  0  0  0  0  0  0  0  0
    3.9746    3.7697    2.1313 H   0  0  0  0  0  0  0  0  0  0  0  0
    3.1661    2.3439    2.7757 H   0  0  0  0  0  0  0  0  0  0  0  0
    7.7584    1.8690    0.3909 H   0  0  0  0  0  0  0  0  0  0  0  0
    6.7489   -0.5658    1.0635 H   0  0  0  0  0  0  0  0  0  0  0  0
    5.2883   -2.3319    0.7149 H   0  0  0  0  0  0  0  0  0  0  0  0
    4.6372   -0.8759   -0.0966 H   0  0  0  0  0  0  0  0  0  0  0  0
    4.7631   -2.1902   -2.1537 H   0  0  0  0  0  0  0  0  0  0  0  0
    3.4091   -3.4947   -3.7368 H   0  0  0  0  0  0  0  0  0  0  0  0
    0.7544   -4.5932   -0.5814 H   0  0  0  0  0  0  0  0  0  0  0  0
    2.0088   -4.6216    3.1836 H   0  0  0  0  0  0  0  0  0  0  0  0
    2.0682   -5.3821    1.6060 H   0  0  0  0  0  0  0  0  0  0  0  0
   -0.2398   -4.5736    3.2375 H   0  0  0  0  0  0  0  0  0  0  0  0
   -0.2172   -5.6313    1.8289 H   0  0  0  0  0  0  0  0  0  0  0  0
   -1.9307   -1.3341    1.8806 H   0  0  0  0  0  0  0  0  0  0  0  0
   -5.5686   -2.8439    0.7878 H   0  0  0  0  0  0  0  0  0  0  0  0
   -5.8170   -4.9694   -0.4353 H   0  0  0  0  0  0  0  0  0  0  0  0
   -4.8343   -7.0212   -1.3728 H   0  0  0  0  0  0  0  0  0  0  0  0
   -2.4093   -7.4572   -1.1120 H   0  0  0  0  0  0  0  0  0  0  0  0
   -0.9850   -5.8517   -0.0047 H   0  0  0  0  0  0  0  0  0  0  0  0
    3.7363   -3.1578    2.7252 H   0  0  0  0  0  0  0  0  0  0  0  0
    2.4986   -2.0572    3.2981 H   0  0  0  0  0  0  0  0  0  0  0  0
  1  2  1  0  0  0  0
  1 36  1  0  0  0  0
  1 37  1  0  0  0  0
  1 38  1  0  0  0  0
  2  3  1  0  0  0  0
  2 39  1  0  0  0  0
  2 40  1  0  0  0  0
  3  4  1  0  0  0  0
  3  7  1  0  0  0  0
  4  5  2  0  0  0  0
  5  6  1  0  0  0  0
  5 41  1  0  0  0  0
  6  7  2  0  0  0  0
  6 42  1  0  0  0  0
  7  8  1  0  0  0  0
  8  9  2  0  0  0  0
  8 10  1  0  0  0  0
 10 11  1  0  0  0  0
 10 35  1  0  0  0  0
 11 12  1  0  0  0  0
 11 43  1  0  0  0  0
 11 44  1  0  0  0  0
 12 13  1  0  0  0  0
 12 18  2  0  0  0  0
 13 14  2  0  0  0  0
 13 45  1  0  0  0  0
 14 15  1  0  0  0  0
 14 46  1  0  0  0  0
 15 16  1  0  0  0  0
 15 17  2  0  0  0  0
 17 18  1  0  0  0  0
 17 47  1  0  0  0  0
 18 19  1  0  0  0  0
 19 20  1  0  0  0  0
 19 33  1  0  0  0  0
 19 35  1  0  0  0  0
 20 21  1  0  0  0  0
 20 48  1  0  0  0  0
 20 49  1  0  0  0  0
 21 22  1  0  0  0  0
 21 50  1  0  0  0  0
 21 51  1  0  0  0  0
 22 23  1  0  0  0  0
 22 33  1  0  0  0  0
 23 24  1  0  0  0  0
 23 32  2  0  0  0  0
 24 25  2  0  0  0  0
 24 52  1  0  0  0  0
 25 26  1  0  0  0  0
 26 27  2  0  0  0  0
 26 53  1  0  0  0  0
 27 28  1  0  0  0  0
 27 32  1  0  0  0  0
 28 29  2  0  0  0  0
 28 54  1  0  0  0  0
 29 30  1  0  0  0  0
 29 55  1  0  0  0  0
 30 31  2  0  0  0  0
 30 56  1  0  0  0  0
 31 32  1  0  0  0  0
 31 57  1  0  0  0  0
 33 34  2  0  0  0  0
 35 58  1  0  0  0  0
 35 59  1  0  0  0  0
M  END
$$$$
