
 OpenBabel07202414123D

 59 62  0  0  0  0  0  0  0  0999 V2000
   -0.2282   -2.6340   -1.6006 C   0  0  0  0  0  0  0  0  0  0  0  0
    1.1655   -2.8808   -0.9939 C   0  0  0  0  0  0  0  0  0  0  0  0
    1.5890   -1.6231   -0.2003 C   0  0  0  0  0  0  0  0  0  0  0  0
    1.0501   -4.0241    0.0451 C   0  0  0  0  0  0  0  0  0  0  0  0
    2.1499   -3.2211   -2.1327 C   0  0  0  0  0  0  0  0  0  0  0  0
    2.8994   -2.2284   -2.8016 C   0  0  0  0  0  0  0  0  0  0  0  0
    3.8313   -2.5428   -3.8148 C   0  0  0  0  0  0  0  0  0  0  0  0
    4.5572   -1.5051   -4.4384 N   0  0  0  0  0  0  0  0  0  0  0  0
    4.7806   -1.2276   -5.8034 C   0  0  0  0  0  0  0  0  0  0  0  0
    5.8484   -0.3803   -6.1438 C   0  0  0  0  0  0  0  0  0  0  0  0
    6.1841   -0.1207   -7.4845 C   0  0  0  0  0  0  0  0  0  0  0  0
    7.3309    0.8005   -7.8243 C   0  0  0  0  0  0  0  0  0  0  0  0
    6.9872    2.2645   -8.0528 C   0  0  0  0  0  0  0  0  0  0  0  0
    7.8269    3.0165   -8.5471 O   0  0  0  0  0  0  0  0  0  0  0  0
    5.7527    2.6836   -7.5970 N   0  0  0  0  0  0  0  0  0  0  0  0
    5.2924    4.0162   -7.7138 C   0  0  0  0  0  0  0  0  0  0  0  0
    5.5228    4.7596   -8.8727 C   0  0  0  0  0  0  0  0  0  0  0  0
    5.0846    6.0225   -9.0694 N   0  0  0  0  0  0  0  0  0  0  0  0
    4.4156    6.5878   -8.0426 C   0  0  0  0  0  0  0  0  0  0  0  0
    4.1421    5.9572   -6.8261 C   0  0  0  0  0  0  0  0  0  0  0  0
    3.4835    6.6316   -5.7825 C   0  0  0  0  0  0  0  0  0  0  0  0
    3.2538    6.0013   -4.5609 C   0  0  0  0  0  0  0  0  0  0  0  0
    3.6692    4.6898   -4.3714 C   0  0  0  0  0  0  0  0  0  0  0  0
    4.3167    4.0072   -5.4035 C   0  0  0  0  0  0  0  0  0  0  0  0
    4.5724    4.6222   -6.6547 C   0  0  0  0  0  0  0  0  0  0  0  0
    5.4286   -0.7154   -8.4999 C   0  0  0  0  0  0  0  0  0  0  0  0
    4.3817   -1.5718   -8.1726 C   0  0  0  0  0  0  0  0  0  0  0  0
    3.4782   -2.3220   -9.4331 Cl  0  0  0  0  0  0  0  0  0  0  0  0
    4.0625   -1.8356   -6.8388 C   0  0  0  0  0  0  0  0  0  0  0  0
    3.9769   -3.8875   -4.1778 C   0  0  0  0  0  0  0  0  0  0  0  0
    4.9199   -4.2921   -5.0766 O   0  0  0  0  0  0  0  0  0  0  0  0
    3.2118   -4.8789   -3.5829 C   0  0  0  0  0  0  0  0  0  0  0  0
    2.3086   -4.5503   -2.5705 C   0  0  0  0  0  0  0  0  0  0  0  0
   -0.9635   -2.4050   -0.8208 H   0  0  0  0  0  0  0  0  0  0  0  0
   -0.5894   -3.5136   -2.1468 H   0  0  0  0  0  0  0  0  0  0  0  0
   -0.2163   -1.7927   -2.3032 H   0  0  0  0  0  0  0  0  0  0  0  0
    0.9227   -1.4533    0.6549 H   0  0  0  0  0  0  0  0  0  0  0  0
    1.5467   -0.7136   -0.8081 H   0  0  0  0  0  0  0  0  0  0  0  0
    2.6081   -1.7247    0.1907 H   0  0  0  0  0  0  0  0  0  0  0  0
    0.4142   -3.7304    0.8890 H   0  0  0  0  0  0  0  0  0  0  0  0
    2.0331   -4.2940    0.4488 H   0  0  0  0  0  0  0  0  0  0  0  0
    0.5973   -4.9277   -0.3768 H   0  0  0  0  0  0  0  0  0  0  0  0
    2.7604   -1.1822   -2.5427 H   0  0  0  0  0  0  0  0  0  0  0  0
    4.6843   -0.6955   -3.8389 H   0  0  0  0  0  0  0  0  0  0  0  0
    6.4472    0.0628   -5.3489 H   0  0  0  0  0  0  0  0  0  0  0  0
    7.8140    0.4364   -8.7396 H   0  0  0  0  0  0  0  0  0  0  0  0
    8.0868    0.7527   -7.0308 H   0  0  0  0  0  0  0  0  0  0  0  0
    5.2673    2.0893   -6.9409 H   0  0  0  0  0  0  0  0  0  0  0  0
    6.0507    4.3349   -9.7228 H   0  0  0  0  0  0  0  0  0  0  0  0
    4.1037    7.6128   -8.2278 H   0  0  0  0  0  0  0  0  0  0  0  0
    3.1650    7.6642   -5.9096 H   0  0  0  0  0  0  0  0  0  0  0  0
    2.7623    6.5395   -3.7546 H   0  0  0  0  0  0  0  0  0  0  0  0
    3.5060    4.2003   -3.4146 H   0  0  0  0  0  0  0  0  0  0  0  0
    4.6505    2.9951   -5.1967 H   0  0  0  0  0  0  0  0  0  0  0  0
    5.6647   -0.5244   -9.5459 H   0  0  0  0  0  0  0  0  0  0  0  0
    3.2408   -2.5120   -6.6153 H   0  0  0  0  0  0  0  0  0  0  0  0
    5.4758   -3.5093   -5.2427 H   0  0  0  0  0  0  0  0  0  0  0  0
    3.3468   -5.9158   -3.8788 H   0  0  0  0  0  0  0  0  0  0  0  0
    1.7396   -5.3642   -2.1312 H   0  0  0  0  0  0  0  0  0  0  0  0
  1  2  1  0  0  0  0
  1 34  1  0  0  0  0
  1 35  1  0  0  0  0
  1 36  1  0  0  0  0
  2  3  1  0  0  0  0
  2  4  1  0  0  0  0
  2  5  1  0  0  0  0
  3 37  1  0  0  0  0
  3 38  1  0  0  0  0
  3 39  1  0  0  0  0
  4 40  1  0  0  0  0
  4 41  1  0  0  0  0
  4 42  1  0  0  0  0
  5  6  2  0  0  0  0
  5 33  1  0  0  0  0
  6  7  1  0  0  0  0
  6 43  1  0  0  0  0
  7  8  1  0  0  0  0
  7 30  2  0  0  0  0
  8  9  1  0  0  0  0
  8 44  1  0  0  0  0
  9 10  2  0  0  0  0
  9 29  1  0  0  0  0
 10 11  1  0  0  0  0
 10 45  1  0  0  0  0
 11 12  1  0  0  0  0
 11 26  2  0  0  0  0
 12 13  1  0  0  0  0
 12 46  1  0  0  0  0
 12 47  1  0  0  0  0
 13 14  2  0  0  0  0
 13 15  1  0  0  0  0
 15 16  1  0  0  0  0
 15 48  1  0  0  0  0
 16 17  2  0  0  0  0
 16 25  1  0  0  0  0
 17 18  1  0  0  0  0
 17 49  1  0  0  0  0
 18 19  2  0  0  0  0
 19 20  1  0  0  0  0
 19 50  1  0  0  0  0
 20 21  2  0  0  0  0
 20 25  1  0  0  0  0
 21 22  1  0  0  0  0
 21 51  1  0  0  0  0
 22 23  2  0  0  0  0
 22 52  1  0  0  0  0
 23 24  1  0  0  0  0
 23 53  1  0  0  0  0
 24 25  2  0  0  0  0
 24 54  1  0  0  0  0
 26 27  1  0  0  0  0
 26 55  1  0  0  0  0
 27 28  1  0  0  0  0
 27 29  2  0  0  0  0
 29 56  1  0  0  0  0
 30 31  1  0  0  0  0
 30 32  1  0  0  0  0
 31 57  1  0  0  0  0
 32 33  2  0  0  0  0
 32 58  1  0  0  0  0
 33 59  1  0  0  0  0
M  END
$$$$
