
 OpenBabel07202414133D

 34 35  0  0  0  0  0  0  0  0999 V2000
    6.9301    0.6296    2.3792 C   0  0  0  0  0  0  0  0  0  0  0  0
    5.7806    1.4844    1.8809 C   0  0  0  0  0  0  0  0  0  0  0  0
    5.0023    0.7918    0.7493 C   0  0  0  0  0  0  0  0  0  0  0  0
    3.9132    1.7019    0.1619 C   0  0  0  0  0  0  0  0  0  0  0  0
    4.5862    2.9126   -0.3729 C   0  0  0  0  0  0  0  0  0  0  0  0
    5.6748    2.8564   -1.1263 N   0  0  0  0  0  0  0  0  0  0  0  0
    6.1919    4.1004   -1.1078 C   0  0  0  0  0  0  0  0  0  0  0  0
    7.3455    4.4726   -1.9434 C   0  0  0  0  0  0  0  0  0  0  0  0
    7.5493    5.7229   -2.3062 N   0  0  0  0  0  0  0  0  0  0  0  0
    8.0419    5.6181   -3.5749 C   0  0  0  0  0  0  0  0  0  0  0  0
    8.3081    4.3048   -3.8901 C   0  0  0  0  0  0  0  0  0  0  0  0
    8.0894    3.6227   -2.7201 N   0  0  0  0  0  0  0  0  0  0  0  0
    8.9632    2.5465   -2.2557 C   0  0  0  0  0  0  0  0  0  0  0  0
    8.4249    1.1392   -2.1962 C   0  0  0  0  0  0  0  0  0  0  0  0
    7.1203    1.0015   -2.4878 F   0  0  0  0  0  0  0  0  0  0  0  0
    9.1030    0.3521   -3.0742 F   0  0  0  0  0  0  0  0  0  0  0  0
    8.6405    0.6000   -0.9685 F   0  0  0  0  0  0  0  0  0  0  0  0
    5.4105    4.9553   -0.3607 C   0  0  0  0  0  0  0  0  0  0  0  0
    4.3575    4.1893    0.0599 N   0  0  0  0  0  0  0  0  0  0  0  0
    7.4400    1.1430    3.1984 H   0  0  0  0  0  0  0  0  0  0  0  0
    7.6605    0.4658    1.5788 H   0  0  0  0  0  0  0  0  0  0  0  0
    6.5733   -0.3345    2.7342 H   0  0  0  0  0  0  0  0  0  0  0  0
    6.2084    2.4358    1.5475 H   0  0  0  0  0  0  0  0  0  0  0  0
    5.0969    1.7174    2.7032 H   0  0  0  0  0  0  0  0  0  0  0  0
    4.5457   -0.1355    1.1152 H   0  0  0  0  0  0  0  0  0  0  0  0
    5.7030    0.5046   -0.0462 H   0  0  0  0  0  0  0  0  0  0  0  0
    3.1775    1.9643    0.9326 H   0  0  0  0  0  0  0  0  0  0  0  0
    3.3864    1.1880   -0.6442 H   0  0  0  0  0  0  0  0  0  0  0  0
    8.1457    6.4855   -4.1996 H   0  0  0  0  0  0  0  0  0  0  0  0
    8.6936    3.8293   -4.7895 H   0  0  0  0  0  0  0  0  0  0  0  0
    9.3577    2.8520   -1.2810 H   0  0  0  0  0  0  0  0  0  0  0  0
    9.8243    2.5487   -2.9307 H   0  0  0  0  0  0  0  0  0  0  0  0
    5.4933    6.0090   -0.1345 H   0  0  0  0  0  0  0  0  0  0  0  0
    3.6007    4.4862    0.6656 H   0  0  0  0  0  0  0  0  0  0  0  0
  1  2  1  0  0  0  0
  1 20  1  0  0  0  0
  1 21  1  0  0  0  0
  1 22  1  0  0  0  0
  2  3  1  0  0  0  0
  2 23  1  0  0  0  0
  2 24  1  0  0  0  0
  3  4  1  0  0  0  0
  3 25  1  0  0  0  0
  3 26  1  0  0  0  0
  4  5  1  0  0  0  0
  4 27  1  0  0  0  0
  4 28  1  0  0  0  0
  5  6  2  0  0  0  0
  5 19  1  0  0  0  0
  6  7  1  0  0  0  0
  7  8  1  0  0  0  0
  7 18  2  0  0  0  0
  8  9  2  0  0  0  0
  8 12  1  0  0  0  0
  9 10  1  0  0  0  0
 10 11  2  0  0  0  0
 10 29  1  0  0  0  0
 11 12  1  0  0  0  0
 11 30  1  0  0  0  0
 12 13  1  0  0  0  0
 13 14  1  0  0  0  0
 13 31  1  0  0  0  0
 13 32  1  0  0  0  0
 14 15  1  0  0  0  0
 14 16  1  0  0  0  0
 14 17  1  0  0  0  0
 18 19  1  0  0  0  0
 18 33  1  0  0  0  0
 19 34  1  0  0  0  0
M  END
$$$$
