
 OpenBabel07202414183D

 31 33  0  0  0  0  0  0  0  0999 V2000
   -1.2708   -4.6965   -2.4639 Cl  0  0  0  0  0  0  0  0  0  0  0  0
    0.1894   -3.7795   -2.4909 C   0  0  0  0  0  0  0  0  0  0  0  0
    0.6785   -3.2964   -3.6973 C   0  0  0  0  0  0  0  0  0  0  0  0
    1.8417   -2.5257   -3.7059 C   0  0  0  0  0  0  0  0  0  0  0  0
    2.5113   -2.2452   -2.5097 C   0  0  0  0  0  0  0  0  0  0  0  0
    2.0377   -2.7470   -1.2884 C   0  0  0  0  0  0  0  0  0  0  0  0
    2.6602   -2.4092    0.0467 C   0  0  0  0  0  0  0  0  0  0  0  0
    4.1490   -2.1290    0.0794 C   0  0  0  0  0  0  0  0  0  0  0  0
    4.5773   -0.9970    0.2962 O   0  0  0  0  0  0  0  0  0  0  0  0
    4.9431   -3.2472   -0.1076 N   0  0  0  0  0  0  0  0  0  0  0  0
    6.3514   -3.2053   -0.0538 C   0  0  0  0  0  0  0  0  0  0  0  0
    7.1171   -3.9328   -0.9666 C   0  0  0  0  0  0  0  0  0  0  0  0
    8.4709   -3.9349   -1.0425 N   0  0  0  0  0  0  0  0  0  0  0  0
    9.1740   -3.2039   -0.1365 C   0  0  0  0  0  0  0  0  0  0  0  0
    8.5074   -2.5044    0.8699 C   0  0  0  0  0  0  0  0  0  0  0  0
    9.0116   -1.7743    1.9282 N   0  0  0  0  0  0  0  0  0  0  0  0
    7.9580   -1.3501    2.5895 C   0  0  0  0  0  0  0  0  0  0  0  0
    6.7960   -1.7477    1.9876 N   0  0  0  0  0  0  0  0  0  0  0  0
    7.1134   -2.5040    0.8863 C   0  0  0  0  0  0  0  0  0  0  0  0
    0.8515   -3.5076   -1.2957 C   0  0  0  0  0  0  0  0  0  0  0  0
    0.1596   -3.4987   -4.6308 H   0  0  0  0  0  0  0  0  0  0  0  0
    2.2131   -2.1261   -4.6464 H   0  0  0  0  0  0  0  0  0  0  0  0
    3.3914   -1.6058   -2.5459 H   0  0  0  0  0  0  0  0  0  0  0  0
    2.4756   -3.2252    0.7556 H   0  0  0  0  0  0  0  0  0  0  0  0
    2.1472   -1.5234    0.4460 H   0  0  0  0  0  0  0  0  0  0  0  0
    4.5241   -4.0070   -0.6342 H   0  0  0  0  0  0  0  0  0  0  0  0
    6.6360   -4.5312   -1.7357 H   0  0  0  0  0  0  0  0  0  0  0  0
   10.2530   -3.2122   -0.2218 H   0  0  0  0  0  0  0  0  0  0  0  0
    7.9735   -0.7625    3.4954 H   0  0  0  0  0  0  0  0  0  0  0  0
    5.8600   -1.5218    2.2927 H   0  0  0  0  0  0  0  0  0  0  0  0
    0.4320   -3.8700   -0.3611 H   0  0  0  0  0  0  0  0  0  0  0  0
  1  2  1  0  0  0  0
  2  3  1  0  0  0  0
  2 20  2  0  0  0  0
  3  4  2  0  0  0  0
  3 21  1  0  0  0  0
  4  5  1  0  0  0  0
  4 22  1  0  0  0  0
  5  6  2  0  0  0  0
  5 23  1  0  0  0  0
  6  7  1  0  0  0  0
  6 20  1  0  0  0  0
  7  8  1  0  0  0  0
  7 24  1  0  0  0  0
  7 25  1  0  0  0  0
  8  9  2  0  0  0  0
  8 10  1  0  0  0  0
 10 11  1  0  0  0  0
 10 26  1  0  0  0  0
 11 12  1  0  0  0  0
 11 19  2  0  0  0  0
 12 13  2  0  0  0  0
 12 27  1  0  0  0  0
 13 14  1  0  0  0  0
 14 15  2  0  0  0  0
 14 28  1  0  0  0  0
 15 16  1  0  0  0  0
 15 19  1  0  0  0  0
 16 17  2  0  0  0  0
 17 18  1  0  0  0  0
 17 29  1  0  0  0  0
 18 19  1  0  0  0  0
 18 30  1  0  0  0  0
 20 31  1  0  0  0  0
M  END
$$$$
