
 OpenBabel07202414183D

 48 51  0  0  0  0  0  0  0  0999 V2000
    8.2687    4.7098   -6.6001 F   0  0  0  0  0  0  0  0  0  0  0  0
    8.0656    5.7439   -5.7333 C   0  0  0  0  0  0  0  0  0  0  0  0
    9.2940    6.0513   -5.2390 F   0  0  0  0  0  0  0  0  0  0  0  0
    7.6798    6.8011   -6.4939 F   0  0  0  0  0  0  0  0  0  0  0  0
    7.0772    5.4384   -4.6324 C   0  0  0  0  0  0  0  0  0  0  0  0
    6.4079    4.2165   -4.5894 C   0  0  0  0  0  0  0  0  0  0  0  0
    5.5521    3.9139   -3.5360 C   0  0  0  0  0  0  0  0  0  0  0  0
    4.9284    2.6619   -3.5209 N   0  0  0  0  0  0  0  0  0  0  0  0
    5.4526    1.4354   -3.9478 C   0  0  0  0  0  0  0  0  0  0  0  0
    4.5644    0.4596   -4.3851 C   0  0  0  0  0  0  0  0  0  0  0  0
    5.0344   -0.7504   -4.9171 C   0  0  0  0  0  0  0  0  0  0  0  0
    4.0496   -1.7757   -5.3791 C   0  0  0  0  0  0  0  0  0  0  0  0
    3.0847   -2.2965   -4.3211 C   0  0  0  0  0  0  0  0  0  0  0  0
    1.9949   -2.7501   -4.6812 O   0  0  0  0  0  0  0  0  0  0  0  0
    3.4709   -2.2209   -2.9847 N   0  0  0  0  0  0  0  0  0  0  0  0
    2.6805   -2.8121   -1.9594 C   0  0  0  0  0  0  0  0  0  0  0  0
    2.3026   -4.1668   -2.1599 C   0  0  0  0  0  0  0  0  0  0  0  0
    1.5388   -4.8697   -1.3078 N   0  0  0  0  0  0  0  0  0  0  0  0
    1.1705   -4.2002   -0.2003 C   0  0  0  0  0  0  0  0  0  0  0  0
    1.5232   -2.8688    0.1359 C   0  0  0  0  0  0  0  0  0  0  0  0
    1.2316   -2.3499    1.3826 C   0  0  0  0  0  0  0  0  0  0  0  0
    1.6972   -1.0775    1.7753 C   0  0  0  0  0  0  0  0  0  0  0  0
    1.6922    0.0002    0.8443 C   0  0  0  0  0  0  0  0  0  0  0  0
    2.1565   -0.6004   -0.2776 C   0  0  0  0  0  0  0  0  0  0  0  0
    2.1955   -2.0703   -0.7498 C   0  0  0  0  0  0  0  0  0  0  0  0
    6.4028   -0.9715   -5.0686 C   0  0  0  0  0  0  0  0  0  0  0  0
    7.2995   -0.0193   -4.5940 C   0  0  0  0  0  0  0  0  0  0  0  0
    8.9873   -0.2549   -4.8291 Cl  0  0  0  0  0  0  0  0  0  0  0  0
    6.8250    1.1618   -4.0265 C   0  0  0  0  0  0  0  0  0  0  0  0
    5.2963    4.7900   -2.5471 N   0  0  0  0  0  0  0  0  0  0  0  0
    5.9133    5.9973   -2.6125 C   0  0  0  0  0  0  0  0  0  0  0  0
    6.7948    6.3546   -3.6280 C   0  0  0  0  0  0  0  0  0  0  0  0
    6.5136    3.5101   -5.4141 H   0  0  0  0  0  0  0  0  0  0  0  0
    4.2723    2.6141   -2.7626 H   0  0  0  0  0  0  0  0  0  0  0  0
    3.4920    0.6620   -4.3533 H   0  0  0  0  0  0  0  0  0  0  0  0
    4.5714   -2.6344   -5.8098 H   0  0  0  0  0  0  0  0  0  0  0  0
    3.4628   -1.3043   -6.1787 H   0  0  0  0  0  0  0  0  0  0  0  0
    4.3934   -1.8780   -2.7384 H   0  0  0  0  0  0  0  0  0  0  0  0
    2.5907   -4.7410   -3.0447 H   0  0  0  0  0  0  0  0  0  0  0  0
    0.5747   -4.7922    0.4911 H   0  0  0  0  0  0  0  0  0  0  0  0
    0.4935   -2.8609    1.9911 H   0  0  0  0  0  0  0  0  0  0  0  0
    2.7849   -0.9623    2.0610 H   0  0  0  0  0  0  0  0  0  0  0  0
    1.1497    0.3773    1.7001 H   0  0  0  0  0  0  0  0  0  0  0  0
    2.8203    0.0674   -0.8174 H   0  0  0  0  0  0  0  0  0  0  0  0
    6.7747   -1.8417   -5.6085 H   0  0  0  0  0  0  0  0  0  0  0  0
    7.5522    1.8893   -3.6838 H   0  0  0  0  0  0  0  0  0  0  0  0
    5.6979    6.6620   -1.7831 H   0  0  0  0  0  0  0  0  0  0  0  0
    7.2319    7.3487   -3.6175 H   0  0  0  0  0  0  0  0  0  0  0  0
  1  2  1  0  0  0  0
  2  3  1  0  0  0  0
  2  4  1  0  0  0  0
  2  5  1  0  0  0  0
  5  6  2  0  0  0  0
  5 32  1  0  0  0  0
  6  7  1  0  0  0  0
  6 33  1  0  0  0  0
  7  8  1  0  0  0  0
  7 30  2  0  0  0  0
  8  9  1  0  0  0  0
  8 34  1  0  0  0  0
  9 10  2  0  0  0  0
  9 29  1  0  0  0  0
 10 11  1  0  0  0  0
 10 35  1  0  0  0  0
 11 12  1  0  0  0  0
 11 26  2  0  0  0  0
 12 13  1  0  0  0  0
 12 36  1  0  0  0  0
 12 37  1  0  0  0  0
 13 14  2  0  0  0  0
 13 15  1  0  0  0  0
 15 16  1  0  0  0  0
 15 38  1  0  0  0  0
 16 17  2  0  0  0  0
 16 25  1  0  0  0  0
 17 18  1  0  0  0  0
 17 39  1  0  0  0  0
 18 19  2  0  0  0  0
 19 20  1  0  0  0  0
 19 40  1  0  0  0  0
 20 21  2  0  0  0  0
 20 25  1  0  0  0  0
 21 22  1  0  0  0  0
 21 41  1  0  0  0  0
 22 23  2  0  0  0  0
 22 42  1  0  0  0  0
 23 24  1  0  0  0  0
 23 43  1  0  0  0  0
 24 25  2  0  0  0  0
 24 44  1  0  0  0  0
 26 27  1  0  0  0  0
 26 45  1  0  0  0  0
 27 28  1  0  0  0  0
 27 29  2  0  0  0  0
 29 46  1  0  0  0  0
 30 31  1  0  0  0  0
 31 32  2  0  0  0  0
 31 47  1  0  0  0  0
 32 48  1  0  0  0  0
M  END
$$$$
