
 OpenBabel07202414183D

 69 74  0  0  1  0  0  0  0  0999 V2000
    1.0391    0.1408   -0.0323 Cl  0  0  0  0  0  0  0  0  0  0  0  0
    2.7558    0.0484    0.0441 C   0  0  0  0  0  0  0  0  0  0  0  0
    3.5227    1.1923   -0.1225 C   0  0  0  0  0  0  0  0  0  0  0  0
    4.9131    1.0990   -0.0638 C   0  0  0  0  0  0  0  0  0  0  0  0
    5.5364   -0.1346    0.1552 C   0  0  0  0  0  0  0  0  0  0  0  0
    4.7788   -1.3039    0.2922 C   0  0  0  0  0  0  0  0  0  0  0  0
    3.3719   -1.1843    0.2555 C   0  0  0  0  0  0  0  0  0  0  0  0
    5.4577   -2.6809    0.4867 C   0  0  2  0  0  0  0  0  0  0  0  0
    4.8092   -3.6500   -0.5353 C   0  0  0  0  0  0  0  0  0  0  0  0
    5.4325   -5.0238   -0.6922 C   0  0  0  0  0  0  0  0  0  0  0  0
    6.4741   -5.3289   -0.1082 O   0  0  0  0  0  0  0  0  0  0  0  0
    4.7595   -5.9124   -1.5200 N   0  0  0  0  0  0  0  0  0  0  0  0
    5.2552   -7.2867   -1.5417 C   0  0  0  0  0  0  0  0  0  0  0  0
    4.8010   -8.0703   -2.7796 C   0  0  0  0  0  0  0  0  0  0  0  0
    3.3666   -7.9906   -3.0787 N   0  0  3  0  0  0  0  0  0  0  0  0
    2.4579   -8.9414   -2.4191 C   0  0  3  0  0  0  0  0  0  0  0  0
    2.3903   -8.9931   -0.9025 C   0  0  0  0  0  0  0  0  0  0  0  0
    3.3506  -10.0944   -0.5015 C   0  0  0  0  0  0  0  0  0  0  0  0
    3.5592  -10.9300   -1.6424 O   0  0  0  0  0  0  0  0  0  0  0  0
    2.7990  -10.4041   -2.7396 C   0  0  0  0  0  0  0  0  0  0  0  0
    2.9128   -6.5947   -3.0884 C   0  0  0  0  0  0  0  0  0  0  0  0
    3.3476   -5.7398   -1.8888 C   0  0  0  0  0  0  0  0  0  0  0  0
    5.1836   -3.1981    1.9429 C   0  0  0  0  0  0  0  0  0  0  0  0
    4.4467   -2.5820    2.7109 O   0  0  0  0  0  0  0  0  0  0  0  0
    5.8154   -4.3815    2.2830 N   0  0  0  0  0  0  0  0  0  0  0  0
    5.8364   -5.0055    3.5606 C   0  0  0  0  0  0  0  0  0  0  0  0
    4.9503   -4.6605    4.5839 C   0  0  0  0  0  0  0  0  0  0  0  0
    5.0053   -5.1425    5.8474 N   0  0  0  0  0  0  0  0  0  0  0  0
    5.9882   -6.0255    6.1098 C   0  0  0  0  0  0  0  0  0  0  0  0
    6.8876   -6.5124    5.1628 C   0  0  0  0  0  0  0  0  0  0  0  0
    7.8493   -7.4795    5.5126 C   0  0  0  0  0  0  0  0  0  0  0  0
    8.7387   -7.9784    4.5640 C   0  0  0  0  0  0  0  0  0  0  0  0
    8.6849   -7.5045    3.2603 C   0  0  0  0  0  0  0  0  0  0  0  0
    7.7476   -6.5291    2.9084 C   0  0  0  0  0  0  0  0  0  0  0  0
    6.8125   -6.0059    3.8430 C   0  0  0  0  0  0  0  0  0  0  0  0
    6.9702   -2.5215    0.2044 C   0  0  0  0  0  0  0  0  0  0  0  0
    7.5076   -1.2311    0.7882 C   0  0  0  0  0  0  0  0  0  0  0  0
    6.9027   -0.0958    0.1804 O   0  0  0  0  0  0  0  0  0  0  0  0
    3.0512    2.1562   -0.2867 H   0  0  0  0  0  0  0  0  0  0  0  0
    5.5190    1.9940   -0.1767 H   0  0  0  0  0  0  0  0  0  0  0  0
    2.7372   -2.0512    0.4185 H   0  0  0  0  0  0  0  0  0  0  0  0
    4.8399   -3.1934   -1.5368 H   0  0  0  0  0  0  0  0  0  0  0  0
    3.7639   -3.8095   -0.2573 H   0  0  0  0  0  0  0  0  0  0  0  0
    4.9071   -7.7501   -0.6167 H   0  0  0  0  0  0  0  0  0  0  0  0
    6.3503   -7.2884   -1.4987 H   0  0  0  0  0  0  0  0  0  0  0  0
    5.1535   -9.1044   -2.7221 H   0  0  0  0  0  0  0  0  0  0  0  0
    5.3275   -7.6425   -3.6447 H   0  0  0  0  0  0  0  0  0  0  0  0
    1.4581   -8.7437   -2.8262 H   0  0  0  0  0  0  0  0  0  0  0  0
    1.3757   -9.2976   -0.6121 H   0  0  0  0  0  0  0  0  0  0  0  0
    2.5771   -8.0537   -0.3812 H   0  0  0  0  0  0  0  0  0  0  0  0
    2.9559  -10.6970    0.3220 H   0  0  0  0  0  0  0  0  0  0  0  0
    4.3229   -9.7114   -0.1845 H   0  0  0  0  0  0  0  0  0  0  0  0
    1.8827  -11.0002   -2.8173 H   0  0  0  0  0  0  0  0  0  0  0  0
    3.3585  -10.5333   -3.6716 H   0  0  0  0  0  0  0  0  0  0  0  0
    1.8251   -6.5273   -3.2138 H   0  0  0  0  0  0  0  0  0  0  0  0
    3.3329   -6.1276   -3.9897 H   0  0  0  0  0  0  0  0  0  0  0  0
    2.7498   -5.9775   -1.0022 H   0  0  0  0  0  0  0  0  0  0  0  0
    3.1531   -4.6907   -2.1328 H   0  0  0  0  0  0  0  0  0  0  0  0
    6.4124   -4.7998    1.5737 H   0  0  0  0  0  0  0  0  0  0  0  0
    4.1188   -3.9806    4.4277 H   0  0  0  0  0  0  0  0  0  0  0  0
    6.0319   -6.3467    7.1471 H   0  0  0  0  0  0  0  0  0  0  0  0
    7.9046   -7.8566    6.5322 H   0  0  0  0  0  0  0  0  0  0  0  0
    9.4661   -8.7348    4.8413 H   0  0  0  0  0  0  0  0  0  0  0  0
    9.3743   -7.8880    2.5122 H   0  0  0  0  0  0  0  0  0  0  0  0
    7.7610   -6.2001    1.8745 H   0  0  0  0  0  0  0  0  0  0  0  0
    7.1364   -2.5058   -0.8811 H   0  0  0  0  0  0  0  0  0  0  0  0
    7.5686   -3.3436    0.6087 H   0  0  0  0  0  0  0  0  0  0  0  0
    8.5805   -1.1670    0.5759 H   0  0  0  0  0  0  0  0  0  0  0  0
    7.3896   -1.1841    1.8768 H   0  0  0  0  0  0  0  0  0  0  0  0
  1  2  1  0  0  0  0
  2  3  1  0  0  0  0
  2  7  2  0  0  0  0
  3  4  2  0  0  0  0
  3 39  1  0  0  0  0
  4  5  1  0  0  0  0
  4 40  1  0  0  0  0
  5  6  2  0  0  0  0
  5 38  1  0  0  0  0
  6  7  1  0  0  0  0
  6  8  1  0  0  0  0
  7 41  1  0  0  0  0
  8  9  1  0  0  0  0
  8 23  1  1  0  0  0
  8 36  1  0  0  0  0
  9 10  1  0  0  0  0
  9 42  1  0  0  0  0
  9 43  1  0  0  0  0
 10 11  2  0  0  0  0
 10 12  1  0  0  0  0
 12 13  1  0  0  0  0
 12 22  1  0  0  0  0
 13 14  1  0  0  0  0
 13 44  1  0  0  0  0
 13 45  1  0  0  0  0
 14 15  1  0  0  0  0
 14 46  1  0  0  0  0
 14 47  1  0  0  0  0
 15 16  1  0  0  0  0
 15 21  1  0  0  0  0
 16 17  1  0  0  0  0
 16 20  1  0  0  0  0
 16 48  1  0  0  0  0
 17 18  1  0  0  0  0
 17 49  1  0  0  0  0
 17 50  1  0  0  0  0
 18 19  1  0  0  0  0
 18 51  1  0  0  0  0
 18 52  1  0  0  0  0
 19 20  1  0  0  0  0
 20 53  1  0  0  0  0
 20 54  1  0  0  0  0
 21 22  1  0  0  0  0
 21 55  1  0  0  0  0
 21 56  1  0  0  0  0
 22 57  1  0  0  0  0
 22 58  1  0  0  0  0
 23 24  2  0  0  0  0
 23 25  1  0  0  0  0
 25 26  1  0  0  0  0
 25 59  1  0  0  0  0
 26 27  1  0  0  0  0
 26 35  2  0  0  0  0
 27 28  2  0  0  0  0
 27 60  1  0  0  0  0
 28 29  1  0  0  0  0
 29 30  2  0  0  0  0
 29 61  1  0  0  0  0
 30 31  1  0  0  0  0
 30 35  1  0  0  0  0
 31 32  2  0  0  0  0
 31 62  1  0  0  0  0
 32 33  1  0  0  0  0
 32 63  1  0  0  0  0
 33 34  2  0  0  0  0
 33 64  1  0  0  0  0
 34 35  1  0  0  0  0
 34 65  1  0  0  0  0
 36 37  1  0  0  0  0
 36 66  1  0  0  0  0
 36 67  1  0  0  0  0
 37 38  1  0  0  0  0
 37 68  1  0  0  0  0
 37 69  1  0  0  0  0
M  END
$$$$
