
 OpenBabel07202414163D

 35 37  0  0  0  0  0  0  0  0999 V2000
    1.6718   -1.6161    2.7156 C   0  0  0  0  0  0  0  0  0  0  0  0
    3.0316   -1.2537    2.2048 C   0  0  0  0  0  0  0  0  0  0  0  0
    3.8619   -0.4714    2.9267 C   0  0  0  0  0  0  0  0  0  0  0  0
    5.1924   -0.1692    2.4285 C   0  0  0  0  0  0  0  0  0  0  0  0
    5.6324   -0.6578    1.2558 C   0  0  0  0  0  0  0  0  0  0  0  0
    4.7880   -1.4978    0.4815 C   0  0  0  0  0  0  0  0  0  0  0  0
    5.0202   -2.1272   -0.6502 N   0  0  0  0  0  0  0  0  0  0  0  0
    3.8897   -2.8559   -0.8998 C   0  0  0  0  0  0  0  0  0  0  0  0
    2.9305   -2.6335    0.0659 C   0  0  0  0  0  0  0  0  0  0  0  0
    1.6546   -3.1789    0.1027 N   0  0  0  0  0  0  0  0  0  0  0  0
    1.4637   -4.5922   -0.0908 C   0  0  0  0  0  0  0  0  0  0  0  0
    2.4324   -5.3272   -0.2185 O   0  0  0  0  0  0  0  0  0  0  0  0
    0.0314   -5.0606   -0.1090 C   0  0  0  0  0  0  0  0  0  0  0  0
   -0.4911   -5.1524   -1.5189 C   0  0  0  0  0  0  0  0  0  0  0  0
    0.0769   -6.0676   -2.4194 C   0  0  0  0  0  0  0  0  0  0  0  0
   -0.3538   -6.1197   -3.7446 C   0  0  0  0  0  0  0  0  0  0  0  0
   -1.3640   -5.2655   -4.1831 C   0  0  0  0  0  0  0  0  0  0  0  0
   -1.9465   -4.3718   -3.2899 C   0  0  0  0  0  0  0  0  0  0  0  0
   -3.1945   -3.3154   -3.8261 Cl  0  0  0  0  0  0  0  0  0  0  0  0
   -1.5210   -4.3112   -1.9616 C   0  0  0  0  0  0  0  0  0  0  0  0
    3.5050   -1.7585    0.9736 N   0  0  0  0  0  0  0  0  0  0  0  0
    1.4757   -1.1797    3.7009 H   0  0  0  0  0  0  0  0  0  0  0  0
    1.5702   -2.7017    2.8186 H   0  0  0  0  0  0  0  0  0  0  0  0
    0.8938   -1.2458    2.0407 H   0  0  0  0  0  0  0  0  0  0  0  0
    3.5841   -0.0638    3.8954 H   0  0  0  0  0  0  0  0  0  0  0  0
    5.8346    0.4586    3.0412 H   0  0  0  0  0  0  0  0  0  0  0  0
    6.6301   -0.4425    0.8886 H   0  0  0  0  0  0  0  0  0  0  0  0
    3.8154   -3.4766   -1.7839 H   0  0  0  0  0  0  0  0  0  0  0  0
    0.8769   -2.5850    0.3495 H   0  0  0  0  0  0  0  0  0  0  0  0
   -0.5768   -4.3787    0.4972 H   0  0  0  0  0  0  0  0  0  0  0  0
   -0.0260   -6.0394    0.3782 H   0  0  0  0  0  0  0  0  0  0  0  0
    0.8721   -6.7435   -2.1017 H   0  0  0  0  0  0  0  0  0  0  0  0
    0.1030   -6.8248   -4.4370 H   0  0  0  0  0  0  0  0  0  0  0  0
   -1.6910   -5.3055   -5.2188 H   0  0  0  0  0  0  0  0  0  0  0  0
   -1.9970   -3.6066   -1.2837 H   0  0  0  0  0  0  0  0  0  0  0  0
  1  2  1  0  0  0  0
  1 22  1  0  0  0  0
  1 23  1  0  0  0  0
  1 24  1  0  0  0  0
  2  3  2  0  0  0  0
  2 21  1  0  0  0  0
  3  4  1  0  0  0  0
  3 25  1  0  0  0  0
  4  5  2  0  0  0  0
  4 26  1  0  0  0  0
  5  6  1  0  0  0  0
  5 27  1  0  0  0  0
  6  7  2  0  0  0  0
  6 21  1  0  0  0  0
  7  8  1  0  0  0  0
  8  9  2  0  0  0  0
  8 28  1  0  0  0  0
  9 10  1  0  0  0  0
  9 21  1  0  0  0  0
 10 11  1  0  0  0  0
 10 29  1  0  0  0  0
 11 12  2  0  0  0  0
 11 13  1  0  0  0  0
 13 14  1  0  0  0  0
 13 30  1  0  0  0  0
 13 31  1  0  0  0  0
 14 15  1  0  0  0  0
 14 20  2  0  0  0  0
 15 16  2  0  0  0  0
 15 32  1  0  0  0  0
 16 17  1  0  0  0  0
 16 33  1  0  0  0  0
 17 18  2  0  0  0  0
 17 34  1  0  0  0  0
 18 19  1  0  0  0  0
 18 20  1  0  0  0  0
 20 35  1  0  0  0  0
M  END
$$$$
