
 OpenBabel07202414173D

 53 57  0  0  1  0  0  0  0  0999 V2000
    0.9091   -0.0025    0.0431 Cl  0  0  0  0  0  0  0  0  0  0  0  0
    2.6265   -0.0123    0.1328 C   0  0  0  0  0  0  0  0  0  0  0  0
    3.3264    1.1784   -0.0106 C   0  0  0  0  0  0  0  0  0  0  0  0
    4.7181    1.1682    0.0353 C   0  0  0  0  0  0  0  0  0  0  0  0
    5.4185   -0.0302    0.2382 C   0  0  0  0  0  0  0  0  0  0  0  0
    4.7071   -1.2306    0.4109 C   0  0  0  0  0  0  0  0  0  0  0  0
    3.3032   -1.2181    0.3516 C   0  0  0  0  0  0  0  0  0  0  0  0
    5.4498   -2.5198    0.7232 C   0  0  3  0  0  0  0  0  0  0  0  0
    5.3964   -2.9352    2.2060 C   0  0  0  0  0  0  0  0  0  0  0  0
    5.4515   -4.1251    2.5118 O   0  0  0  0  0  0  0  0  0  0  0  0
    5.3156   -1.8854    3.1038 N   0  0  0  0  0  0  0  0  0  0  0  0
    5.0877   -1.9367    4.5025 C   0  0  0  0  0  0  0  0  0  0  0  0
    4.9184   -3.1306    5.2023 C   0  0  0  0  0  0  0  0  0  0  0  0
    4.5097   -3.2085    6.4907 N   0  0  0  0  0  0  0  0  0  0  0  0
    4.3330   -2.0409    7.1407 C   0  0  0  0  0  0  0  0  0  0  0  0
    4.6165   -0.7886    6.6025 C   0  0  0  0  0  0  0  0  0  0  0  0
    4.5639    0.3716    7.3988 C   0  0  0  0  0  0  0  0  0  0  0  0
    4.8669    1.6191    6.8611 C   0  0  0  0  0  0  0  0  0  0  0  0
    5.1796    1.7267    5.5139 C   0  0  0  0  0  0  0  0  0  0  0  0
    5.2299    0.5808    4.7130 C   0  0  0  0  0  0  0  0  0  0  0  0
    4.9791   -0.7160    5.2374 C   0  0  0  0  0  0  0  0  0  0  0  0
    6.8989   -2.4734    0.2248 C   0  0  0  0  0  0  0  0  0  0  0  0
    7.6125   -1.2278    0.6799 N   0  0  0  0  0  0  0  0  0  0  0  0
    9.2853   -1.2550    0.2374 S   0  0  0  0  0  0  0  0  0  0  0  0
    9.8438   -2.4769    0.7884 O   0  0  0  0  0  0  0  0  0  0  0  0
    9.3432   -0.9871   -1.1790 O   0  0  0  0  0  0  0  0  0  0  0  0
    9.9631    0.1496    1.1562 C   0  0  0  0  0  0  0  0  0  0  0  0
   11.3947    0.2926    0.7158 C   0  0  0  0  0  0  0  0  0  0  0  0
   12.2755    1.3587    1.3261 C   0  0  0  0  0  0  0  0  0  0  0  0
   11.8133    1.4979   -0.0948 C   0  0  0  0  0  0  0  0  0  0  0  0
    6.9284    0.0048    0.2064 C   0  0  0  0  0  0  0  0  0  0  0  0
    2.7954    2.1176   -0.1722 H   0  0  0  0  0  0  0  0  0  0  0  0
    5.2590    2.1042   -0.0943 H   0  0  0  0  0  0  0  0  0  0  0  0
    2.7355   -2.1368    0.4739 H   0  0  0  0  0  0  0  0  0  0  0  0
    4.9400   -3.3269    0.1735 H   0  0  0  0  0  0  0  0  0  0  0  0
    5.2790   -0.9657    2.6971 H   0  0  0  0  0  0  0  0  0  0  0  0
    5.0939   -4.1011    4.7501 H   0  0  0  0  0  0  0  0  0  0  0  0
    3.9496   -2.1466    8.1523 H   0  0  0  0  0  0  0  0  0  0  0  0
    4.3220    0.3011    8.4576 H   0  0  0  0  0  0  0  0  0  0  0  0
    4.8650    2.5023    7.4950 H   0  0  0  0  0  0  0  0  0  0  0  0
    5.4035    2.7003    5.0847 H   0  0  0  0  0  0  0  0  0  0  0  0
    5.5065    0.7274    3.6740 H   0  0  0  0  0  0  0  0  0  0  0  0
    6.9008   -2.4949   -0.8738 H   0  0  0  0  0  0  0  0  0  0  0  0
    7.4347   -3.3616    0.5788 H   0  0  0  0  0  0  0  0  0  0  0  0
    9.8870   -0.0754    2.2235 H   0  0  0  0  0  0  0  0  0  0  0  0
    9.3897    1.0432    0.9053 H   0  0  0  0  0  0  0  0  0  0  0  0
   11.8855   -0.6574    0.5252 H   0  0  0  0  0  0  0  0  0  0  0  0
   13.3226    1.1219    1.4890 H   0  0  0  0  0  0  0  0  0  0  0  0
   11.8601    2.0340    2.0652 H   0  0  0  0  0  0  0  0  0  0  0  0
   12.5360    1.3451   -0.8894 H   0  0  0  0  0  0  0  0  0  0  0  0
   11.0915    2.2790   -0.3081 H   0  0  0  0  0  0  0  0  0  0  0  0
    7.2223    0.2379   -0.8193 H   0  0  0  0  0  0  0  0  0  0  0  0
    7.2399    0.8208    0.8682 H   0  0  0  0  0  0  0  0  0  0  0  0
  1  2  1  0  0  0  0
  2  3  1  0  0  0  0
  2  7  2  0  0  0  0
  3  4  2  0  0  0  0
  3 32  1  0  0  0  0
  4  5  1  0  0  0  0
  4 33  1  0  0  0  0
  5  6  2  0  0  0  0
  5 31  1  0  0  0  0
  6  7  1  0  0  0  0
  6  8  1  0  0  0  0
  7 34  1  0  0  0  0
  8  9  1  0  0  0  0
  8 22  1  0  0  0  0
  8 35  1  0  0  0  0
  9 10  2  0  0  0  0
  9 11  1  0  0  0  0
 11 12  1  0  0  0  0
 11 36  1  0  0  0  0
 12 13  1  0  0  0  0
 12 21  2  0  0  0  0
 13 14  2  0  0  0  0
 13 37  1  0  0  0  0
 14 15  1  0  0  0  0
 15 16  2  0  0  0  0
 15 38  1  0  0  0  0
 16 17  1  0  0  0  0
 16 21  1  0  0  0  0
 17 18  2  0  0  0  0
 17 39  1  0  0  0  0
 18 19  1  0  0  0  0
 18 40  1  0  0  0  0
 19 20  2  0  0  0  0
 19 41  1  0  0  0  0
 20 21  1  0  0  0  0
 20 42  1  0  0  0  0
 22 23  1  0  0  0  0
 22 43  1  0  0  0  0
 22 44  1  0  0  0  0
 23 24  1  0  0  0  0
 23 31  1  0  0  0  0
 24 25  2  0  0  0  0
 24 26  2  0  0  0  0
 24 27  1  0  0  0  0
 27 28  1  0  0  0  0
 27 45  1  0  0  0  0
 27 46  1  0  0  0  0
 28 29  1  0  0  0  0
 28 30  1  0  0  0  0
 28 47  1  0  0  0  0
 29 30  1  0  0  0  0
 29 48  1  0  0  0  0
 29 49  1  0  0  0  0
 30 50  1  0  0  0  0
 30 51  1  0  0  0  0
 31 52  1  0  0  0  0
 31 53  1  0  0  0  0
M  END
$$$$
