
 OpenBabel07202414183D

 39 42  0  0  1  0  0  0  0  0999 V2000
    4.9920   -4.9104   -2.2576 F   0  0  0  0  0  0  0  0  0  0  0  0
    5.3908   -3.8003   -1.6197 C   0  0  0  0  0  0  0  0  0  0  0  0
    4.4375   -2.8606   -1.2456 C   0  0  0  0  0  0  0  0  0  0  0  0
    4.8299   -1.7024   -0.5758 C   0  0  0  0  0  0  0  0  0  0  0  0
    6.1787   -1.4751   -0.2714 C   0  0  0  0  0  0  0  0  0  0  0  0
    7.1321   -2.4250   -0.6749 C   0  0  0  0  0  0  0  0  0  0  0  0
    6.7381   -3.5827   -1.3464 C   0  0  0  0  0  0  0  0  0  0  0  0
    7.9338   -4.7174   -1.8366 Cl  0  0  0  0  0  0  0  0  0  0  0  0
    6.6060   -0.2284    0.4649 C   0  0  3  0  0  0  0  0  0  0  0  0
    6.9290   -0.5291    1.9440 C   0  0  0  0  0  0  0  0  0  0  0  0
    6.0729   -0.4320    2.8228 O   0  0  0  0  0  0  0  0  0  0  0  0
    8.2452   -0.9181    2.1458 N   0  0  0  0  0  0  0  0  0  0  0  0
    8.8782   -1.1949    3.3865 C   0  0  0  0  0  0  0  0  0  0  0  0
    8.2002   -1.1591    4.6022 C   0  0  0  0  0  0  0  0  0  0  0  0
    8.8019   -1.1437    5.8119 N   0  0  0  0  0  0  0  0  0  0  0  0
   10.1393   -1.2825    5.8180 C   0  0  0  0  0  0  0  0  0  0  0  0
   10.9083   -1.5623    4.6922 C   0  0  0  0  0  0  0  0  0  0  0  0
   12.2573   -1.9211    4.8112 C   0  0  0  0  0  0  0  0  0  0  0  0
   13.0215   -2.2154    3.6855 C   0  0  0  0  0  0  0  0  0  0  0  0
   12.4516   -2.0974    2.4261 C   0  0  0  0  0  0  0  0  0  0  0  0
   11.1074   -1.7323    2.2944 C   0  0  0  0  0  0  0  0  0  0  0  0
   10.2774   -1.4842    3.4243 C   0  0  0  0  0  0  0  0  0  0  0  0
    5.5240    0.8424    0.3122 C   0  0  0  0  0  0  0  0  0  0  0  0
    4.1448    0.2573    0.5754 C   0  0  0  0  0  0  0  0  0  0  0  0
    3.8226   -0.8151   -0.3111 O   0  0  0  0  0  0  0  0  0  0  0  0
    3.3921   -3.0334   -1.4824 H   0  0  0  0  0  0  0  0  0  0  0  0
    8.1890   -2.2634   -0.4782 H   0  0  0  0  0  0  0  0  0  0  0  0
    7.5166    0.1742   -0.0055 H   0  0  0  0  0  0  0  0  0  0  0  0
    8.8690   -0.8132    1.3565 H   0  0  0  0  0  0  0  0  0  0  0  0
    7.1189   -1.1255    4.6653 H   0  0  0  0  0  0  0  0  0  0  0  0
   10.5980   -1.1640    6.7982 H   0  0  0  0  0  0  0  0  0  0  0  0
   12.7148   -2.0242    5.7956 H   0  0  0  0  0  0  0  0  0  0  0  0
   14.0525   -2.5475    3.7941 H   0  0  0  0  0  0  0  0  0  0  0  0
   13.0468   -2.3129    1.5416 H   0  0  0  0  0  0  0  0  0  0  0  0
   10.7061   -1.6951    1.2862 H   0  0  0  0  0  0  0  0  0  0  0  0
    5.5488    1.2140   -0.7208 H   0  0  0  0  0  0  0  0  0  0  0  0
    5.7122    1.6965    0.9727 H   0  0  0  0  0  0  0  0  0  0  0  0
    3.3911    1.0372    0.4142 H   0  0  0  0  0  0  0  0  0  0  0  0
    4.0166   -0.0881    1.6054 H   0  0  0  0  0  0  0  0  0  0  0  0
  1  2  1  0  0  0  0
  2  3  1  0  0  0  0
  2  7  2  0  0  0  0
  3  4  2  0  0  0  0
  3 26  1  0  0  0  0
  4  5  1  0  0  0  0
  4 25  1  0  0  0  0
  5  6  2  0  0  0  0
  5  9  1  0  0  0  0
  6  7  1  0  0  0  0
  6 27  1  0  0  0  0
  7  8  1  0  0  0  0
  9 10  1  0  0  0  0
  9 23  1  0  0  0  0
  9 28  1  0  0  0  0
 10 11  2  0  0  0  0
 10 12  1  0  0  0  0
 12 13  1  0  0  0  0
 12 29  1  0  0  0  0
 13 14  1  0  0  0  0
 13 22  2  0  0  0  0
 14 15  2  0  0  0  0
 14 30  1  0  0  0  0
 15 16  1  0  0  0  0
 16 17  2  0  0  0  0
 16 31  1  0  0  0  0
 17 18  1  0  0  0  0
 17 22  1  0  0  0  0
 18 19  2  0  0  0  0
 18 32  1  0  0  0  0
 19 20  1  0  0  0  0
 19 33  1  0  0  0  0
 20 21  2  0  0  0  0
 20 34  1  0  0  0  0
 21 22  1  0  0  0  0
 21 35  1  0  0  0  0
 23 24  1  0  0  0  0
 23 36  1  0  0  0  0
 23 37  1  0  0  0  0
 24 25  1  0  0  0  0
 24 38  1  0  0  0  0
 24 39  1  0  0  0  0
M  END
$$$$
