
 OpenBabel07202414173D

 51 55  0  0  1  0  0  0  0  0999 V2000
    0.8837    0.4004   -0.0967 Cl  0  0  0  0  0  0  0  0  0  0  0  0
    2.5998    0.2680   -0.0474 C   0  0  0  0  0  0  0  0  0  0  0  0
    3.3806    1.4152   -0.0431 C   0  0  0  0  0  0  0  0  0  0  0  0
    4.7656    1.2960   -0.0280 C   0  0  0  0  0  0  0  0  0  0  0  0
    5.3804    0.0299   -0.0081 C   0  0  0  0  0  0  0  0  0  0  0  0
    4.5943   -1.1478   -0.0016 C   0  0  0  0  0  0  0  0  0  0  0  0
    3.1924   -0.9947   -0.0238 C   0  0  0  0  0  0  0  0  0  0  0  0
    5.2530   -2.5453    0.0092 C   0  0  3  0  0  0  0  0  0  0  0  0
    6.7721   -2.4467   -0.2123 C   0  0  0  0  0  0  0  0  0  0  0  0
    7.4456   -1.2902    0.4389 N   0  0  0  0  0  0  0  0  0  0  0  0
    7.6900   -1.3054    2.1339 S   0  0  0  0  0  0  0  0  0  0  0  0
    8.5843   -0.1904    2.4037 O   0  0  0  0  0  0  0  0  0  0  0  0
    6.3885   -1.3310    2.7427 O   0  0  0  0  0  0  0  0  0  0  0  0
    8.6206   -2.8196    2.3442 C   0  0  0  0  0  0  0  0  0  0  0  0
    8.5716   -2.9913    3.8536 C   0  0  0  0  0  0  0  0  0  0  0  0
    8.5309   -3.1338    5.1059 N   0  0  0  0  0  0  0  0  0  0  0  0
    6.8877   -0.0117   -0.0415 C   0  0  0  0  0  0  0  0  0  0  0  0
    4.6510   -3.4451   -1.1038 C   0  0  0  0  0  0  0  0  0  0  0  0
    3.6592   -4.3778   -0.4160 C   0  0  0  0  0  0  0  0  0  0  0  0
    3.6410   -3.9786    0.9640 N   0  0  0  0  0  0  0  0  0  0  0  0
    2.7446   -4.5467    1.9144 C   0  0  0  0  0  0  0  0  0  0  0  0
    2.1348   -5.7705    1.6101 C   0  0  0  0  0  0  0  0  0  0  0  0
    1.1193   -6.3370    2.2911 N   0  0  0  0  0  0  0  0  0  0  0  0
    0.7208   -5.6828    3.3971 C   0  0  0  0  0  0  0  0  0  0  0  0
    1.3099   -4.5205    3.8896 C   0  0  0  0  0  0  0  0  0  0  0  0
    0.8908   -3.9999    5.1255 C   0  0  0  0  0  0  0  0  0  0  0  0
    1.4251   -2.8162    5.6137 C   0  0  0  0  0  0  0  0  0  0  0  0
    2.3335   -2.1124    4.8376 C   0  0  0  0  0  0  0  0  0  0  0  0
    2.7700   -2.6312    3.6035 C   0  0  0  0  0  0  0  0  0  0  0  0
    2.3224   -3.8893    3.1163 C   0  0  0  0  0  0  0  0  0  0  0  0
    4.8825   -3.4033    1.2382 C   0  0  0  0  0  0  0  0  0  0  0  0
    5.6221   -3.7308    2.1559 O   0  0  0  0  0  0  0  0  0  0  0  0
    2.9192    2.3989   -0.0540 H   0  0  0  0  0  0  0  0  0  0  0  0
    5.3709    2.2018   -0.0258 H   0  0  0  0  0  0  0  0  0  0  0  0
    2.5331   -1.8577   -0.0290 H   0  0  0  0  0  0  0  0  0  0  0  0
    6.9679   -2.3160   -1.2873 H   0  0  0  0  0  0  0  0  0  0  0  0
    7.2809   -3.3825    0.0341 H   0  0  0  0  0  0  0  0  0  0  0  0
    9.6392   -2.6590    1.9862 H   0  0  0  0  0  0  0  0  0  0  0  0
    8.1516   -3.6751    1.8676 H   0  0  0  0  0  0  0  0  0  0  0  0
    7.2279    0.1373   -1.0732 H   0  0  0  0  0  0  0  0  0  0  0  0
    7.3035    0.8260    0.5333 H   0  0  0  0  0  0  0  0  0  0  0  0
    5.4232   -4.0582   -1.5922 H   0  0  0  0  0  0  0  0  0  0  0  0
    4.1667   -2.8745   -1.9067 H   0  0  0  0  0  0  0  0  0  0  0  0
    4.0479   -5.4038   -0.4711 H   0  0  0  0  0  0  0  0  0  0  0  0
    2.6629   -4.3340   -0.8638 H   0  0  0  0  0  0  0  0  0  0  0  0
    2.4720   -6.3778    0.7761 H   0  0  0  0  0  0  0  0  0  0  0  0
   -0.1346   -6.1329    3.8947 H   0  0  0  0  0  0  0  0  0  0  0  0
    0.1584   -4.5345    5.7309 H   0  0  0  0  0  0  0  0  0  0  0  0
    1.1274   -2.4437    6.5928 H   0  0  0  0  0  0  0  0  0  0  0  0
    2.7247   -1.1605    5.1943 H   0  0  0  0  0  0  0  0  0  0  0  0
    3.4841   -2.0345    3.0447 H   0  0  0  0  0  0  0  0  0  0  0  0
  1  2  1  0  0  0  0
  2  3  1  0  0  0  0
  2  7  2  0  0  0  0
  3  4  2  0  0  0  0
  3 33  1  0  0  0  0
  4  5  1  0  0  0  0
  4 34  1  0  0  0  0
  5  6  2  0  0  0  0
  5 17  1  0  0  0  0
  6  7  1  0  0  0  0
  6  8  1  0  0  0  0
  7 35  1  0  0  0  0
  8  9  1  0  0  0  0
  8 18  1  0  0  0  0
  8 31  1  0  0  0  0
  9 10  1  0  0  0  0
  9 36  1  0  0  0  0
  9 37  1  0  0  0  0
 10 11  1  0  0  0  0
 10 17  1  0  0  0  0
 11 12  2  0  0  0  0
 11 13  2  0  0  0  0
 11 14  1  0  0  0  0
 14 15  1  0  0  0  0
 14 38  1  0  0  0  0
 14 39  1  0  0  0  0
 15 16  3  0  0  0  0
 17 40  1  0  0  0  0
 17 41  1  0  0  0  0
 18 19  1  0  0  0  0
 18 42  1  0  0  0  0
 18 43  1  0  0  0  0
 19 20  1  0  0  0  0
 19 44  1  0  0  0  0
 19 45  1  0  0  0  0
 20 21  1  0  0  0  0
 20 31  1  0  0  0  0
 21 22  1  0  0  0  0
 21 30  2  0  0  0  0
 22 23  2  0  0  0  0
 22 46  1  0  0  0  0
 23 24  1  0  0  0  0
 24 25  2  0  0  0  0
 24 47  1  0  0  0  0
 25 26  1  0  0  0  0
 25 30  1  0  0  0  0
 26 27  2  0  0  0  0
 26 48  1  0  0  0  0
 27 28  1  0  0  0  0
 27 49  1  0  0  0  0
 28 29  2  0  0  0  0
 28 50  1  0  0  0  0
 29 30  1  0  0  0  0
 29 51  1  0  0  0  0
 31 32  2  0  0  0  0
M  END
$$$$
