
 OpenBabel07202414133D

 51 53  0  0  0  0  0  0  0  0999 V2000
    2.5354   -1.2889   -0.8223 C   0  0  0  0  0  0  0  0  0  0  0  0
    2.2459   -1.8830    0.4841 N   0  0  0  0  0  0  0  0  0  0  0  0
    0.7919   -1.9878    0.6572 C   0  0  0  0  0  0  0  0  0  0  0  0
    2.8757   -3.2050    0.6497 C   0  0  0  0  0  0  0  0  0  0  0  0
    4.4133   -3.1976    0.6048 C   0  0  0  0  0  0  0  0  0  0  0  0
    5.0475   -2.2291    1.6101 C   0  0  0  0  0  0  0  0  0  0  0  0
    6.5162   -2.2553    1.5461 N   0  0  0  0  0  0  0  0  0  0  0  0
    7.1620   -1.3574    0.5821 C   0  0  0  0  0  0  0  0  0  0  0  0
    7.7388   -0.1452    1.2627 C   0  0  0  0  0  0  0  0  0  0  0  0
    7.2602    0.5869    2.3358 C   0  0  0  0  0  0  0  0  0  0  0  0
    8.1252    1.6612    2.6971 C   0  0  0  0  0  0  0  0  0  0  0  0
    9.2245    1.7406    1.8734 C   0  0  0  0  0  0  0  0  0  0  0  0
    9.2008    0.5353    0.6623 S   0  0  0  0  0  0  0  0  0  0  0  0
    7.1852   -3.2247    2.2876 C   0  0  0  0  0  0  0  0  0  0  0  0
    6.5743   -4.0067    3.0258 O   0  0  0  0  0  0  0  0  0  0  0  0
    8.6990   -3.3561    2.1543 C   0  0  0  0  0  0  0  0  0  0  0  0
    9.1445   -4.2359    1.0035 C   0  0  0  0  0  0  0  0  0  0  0  0
    8.3871   -5.3587    0.6565 C   0  0  0  0  0  0  0  0  0  0  0  0
    8.6629   -6.1848   -0.3734 N   0  0  0  0  0  0  0  0  0  0  0  0
    9.7661   -5.8989   -1.0937 C   0  0  0  0  0  0  0  0  0  0  0  0
   10.6324   -4.8393   -0.8295 C   0  0  0  0  0  0  0  0  0  0  0  0
   10.3364   -3.9953    0.2661 C   0  0  0  0  0  0  0  0  0  0  0  0
   11.2600   -2.9612    0.5490 C   0  0  0  0  0  0  0  0  0  0  0  0
   12.3925   -2.7481   -0.2433 C   0  0  0  0  0  0  0  0  0  0  0  0
   12.6407   -3.5657   -1.3377 C   0  0  0  0  0  0  0  0  0  0  0  0
   11.7698   -4.6131   -1.6254 C   0  0  0  0  0  0  0  0  0  0  0  0
    2.0612   -0.3048   -0.9063 H   0  0  0  0  0  0  0  0  0  0  0  0
    2.1813   -1.9152   -1.6492 H   0  0  0  0  0  0  0  0  0  0  0  0
    3.6079   -1.1162   -0.9517 H   0  0  0  0  0  0  0  0  0  0  0  0
    0.3303   -0.9944    0.6147 H   0  0  0  0  0  0  0  0  0  0  0  0
    0.5415   -2.4051    1.6388 H   0  0  0  0  0  0  0  0  0  0  0  0
    0.3267   -2.6146   -0.1130 H   0  0  0  0  0  0  0  0  0  0  0  0
    2.5048   -3.9024   -0.1135 H   0  0  0  0  0  0  0  0  0  0  0  0
    2.5777   -3.6207    1.6214 H   0  0  0  0  0  0  0  0  0  0  0  0
    4.7608   -2.9695   -0.4103 H   0  0  0  0  0  0  0  0  0  0  0  0
    4.7639   -4.2176    0.8106 H   0  0  0  0  0  0  0  0  0  0  0  0
    4.7315   -2.5034    2.6231 H   0  0  0  0  0  0  0  0  0  0  0  0
    4.7178   -1.1993    1.4409 H   0  0  0  0  0  0  0  0  0  0  0  0
    6.4283   -1.0433   -0.1692 H   0  0  0  0  0  0  0  0  0  0  0  0
    7.9417   -1.9113    0.0514 H   0  0  0  0  0  0  0  0  0  0  0  0
    6.3374    0.3551    2.8544 H   0  0  0  0  0  0  0  0  0  0  0  0
    7.9506    2.3435    3.5225 H   0  0  0  0  0  0  0  0  0  0  0  0
   10.0371    2.4535    1.9166 H   0  0  0  0  0  0  0  0  0  0  0  0
    9.0838   -3.7860    3.0879 H   0  0  0  0  0  0  0  0  0  0  0  0
    9.1237   -2.3541    2.0951 H   0  0  0  0  0  0  0  0  0  0  0  0
    7.4952   -5.6408    1.2129 H   0  0  0  0  0  0  0  0  0  0  0  0
    9.9476   -6.5821   -1.9197 H   0  0  0  0  0  0  0  0  0  0  0  0
   11.1225   -2.3036    1.4032 H   0  0  0  0  0  0  0  0  0  0  0  0
   13.0785   -1.9404   -0.0005 H   0  0  0  0  0  0  0  0  0  0  0  0
   13.5148   -3.3952   -1.9607 H   0  0  0  0  0  0  0  0  0  0  0  0
   11.9835   -5.2559   -2.4770 H   0  0  0  0  0  0  0  0  0  0  0  0
  1  2  1  0  0  0  0
  1 27  1  0  0  0  0
  1 28  1  0  0  0  0
  1 29  1  0  0  0  0
  2  3  1  0  0  0  0
  2  4  1  0  0  0  0
  3 30  1  0  0  0  0
  3 31  1  0  0  0  0
  3 32  1  0  0  0  0
  4  5  1  0  0  0  0
  4 33  1  0  0  0  0
  4 34  1  0  0  0  0
  5  6  1  0  0  0  0
  5 35  1  0  0  0  0
  5 36  1  0  0  0  0
  6  7  1  0  0  0  0
  6 37  1  0  0  0  0
  6 38  1  0  0  0  0
  7  8  1  0  0  0  0
  7 14  1  0  0  0  0
  8  9  1  0  0  0  0
  8 39  1  0  0  0  0
  8 40  1  0  0  0  0
  9 10  2  0  0  0  0
  9 13  1  0  0  0  0
 10 11  1  0  0  0  0
 10 41  1  0  0  0  0
 11 12  2  0  0  0  0
 11 42  1  0  0  0  0
 12 13  1  0  0  0  0
 12 43  1  0  0  0  0
 14 15  2  0  0  0  0
 14 16  1  0  0  0  0
 16 17  1  0  0  0  0
 16 44  1  0  0  0  0
 16 45  1  0  0  0  0
 17 18  1  0  0  0  0
 17 22  2  0  0  0  0
 18 19  2  0  0  0  0
 18 46  1  0  0  0  0
 19 20  1  0  0  0  0
 20 21  2  0  0  0  0
 20 47  1  0  0  0  0
 21 22  1  0  0  0  0
 21 26  1  0  0  0  0
 22 23  1  0  0  0  0
 23 24  2  0  0  0  0
 23 48  1  0  0  0  0
 24 25  1  0  0  0  0
 24 49  1  0  0  0  0
 25 26  2  0  0  0  0
 25 50  1  0  0  0  0
 26 51  1  0  0  0  0
M  END
$$$$
