
 OpenBabel07202414153D

 45 48  0  0  1  0  0  0  0  0999 V2000
   10.1825   -7.4187   -1.9754 C   0  0  0  0  0  0  0  0  0  0  0  0
    9.8717   -7.0953   -0.2613 S   0  0  0  0  0  0  0  0  0  0  0  0
    9.9332   -8.3502    0.4607 O   0  0  0  0  0  0  0  0  0  0  0  0
   10.7005   -5.9726    0.1336 O   0  0  0  0  0  0  0  0  0  0  0  0
    8.1827   -6.5284   -0.2020 C   0  0  0  0  0  0  0  0  0  0  0  0
    7.1369   -7.4131    0.0122 C   0  0  0  0  0  0  0  0  0  0  0  0
    5.8487   -6.9002    0.1888 C   0  0  0  0  0  0  0  0  0  0  0  0
    5.6181   -5.5062    0.2096 C   0  0  0  0  0  0  0  0  0  0  0  0
    4.3432   -4.9800    0.4161 C   0  0  0  0  0  0  0  0  0  0  0  0
    4.0607   -3.6621    0.4846 N   0  0  0  0  0  0  0  0  0  0  0  0
    5.1022   -2.8037    0.3463 C   0  0  0  0  0  0  0  0  0  0  0  0
    6.4229   -3.1921    0.1304 C   0  0  0  0  0  0  0  0  0  0  0  0
    6.6863   -4.5883    0.0372 C   0  0  0  0  0  0  0  0  0  0  0  0
    7.9635   -5.1419   -0.2136 C   0  0  0  0  0  0  0  0  0  0  0  0
    7.4992   -2.2555    0.0625 N   0  0  0  0  0  0  0  0  0  0  0  0
    7.4095   -0.8799   -0.1140 C   0  0  0  0  0  0  0  0  0  0  0  0
    6.3603   -0.2607   -0.2584 O   0  0  0  0  0  0  0  0  0  0  0  0
    8.7822   -0.1738   -0.1409 C   0  0  3  0  0  0  0  0  0  0  0  0
    8.6615    1.2768    0.3529 C   0  0  0  0  0  0  0  0  0  0  0  0
    8.2621    2.1827   -0.7999 C   0  0  0  0  0  0  0  0  0  0  0  0
    9.3077    2.2291   -1.7733 O   0  0  0  0  0  0  0  0  0  0  0  0
    9.7185    0.9939   -2.1985 C   0  0  0  0  0  0  0  0  0  0  0  0
    9.4547   -0.1984   -1.5051 C   0  0  0  0  0  0  0  0  0  0  0  0
    9.9092   -1.4021   -2.0683 C   0  0  0  0  0  0  0  0  0  0  0  0
   10.6410   -1.4016   -3.2586 C   0  0  0  0  0  0  0  0  0  0  0  0
   10.9478   -0.2075   -3.9015 C   0  0  0  0  0  0  0  0  0  0  0  0
   10.4807    0.9925   -3.3703 C   0  0  0  0  0  0  0  0  0  0  0  0
   11.1869   -2.8963   -3.9153 Cl  0  0  0  0  0  0  0  0  0  0  0  0
   11.2411   -7.6699   -2.0760 H   0  0  0  0  0  0  0  0  0  0  0  0
    9.9627   -6.5224   -2.5573 H   0  0  0  0  0  0  0  0  0  0  0  0
    9.5690   -8.2603   -2.3001 H   0  0  0  0  0  0  0  0  0  0  0  0
    7.3042   -8.4833    0.0649 H   0  0  0  0  0  0  0  0  0  0  0  0
    5.0228   -7.5927    0.3494 H   0  0  0  0  0  0  0  0  0  0  0  0
    3.4779   -5.6262    0.5443 H   0  0  0  0  0  0  0  0  0  0  0  0
    4.8140   -1.7642    0.4722 H   0  0  0  0  0  0  0  0  0  0  0  0
    8.8117   -4.4978   -0.4087 H   0  0  0  0  0  0  0  0  0  0  0  0
    8.4273   -2.6368    0.1634 H   0  0  0  0  0  0  0  0  0  0  0  0
    9.4370   -0.6921    0.5733 H   0  0  0  0  0  0  0  0  0  0  0  0
    9.6435    1.6043    0.7217 H   0  0  0  0  0  0  0  0  0  0  0  0
    7.9528    1.3656    1.1831 H   0  0  0  0  0  0  0  0  0  0  0  0
    8.1164    3.2058   -0.4361 H   0  0  0  0  0  0  0  0  0  0  0  0
    7.3269    1.8782   -1.2839 H   0  0  0  0  0  0  0  0  0  0  0  0
    9.7219   -2.3521   -1.5809 H   0  0  0  0  0  0  0  0  0  0  0  0
   11.5453   -0.2008   -4.8087 H   0  0  0  0  0  0  0  0  0  0  0  0
   10.7118    1.9328   -3.8656 H   0  0  0  0  0  0  0  0  0  0  0  0
  1  2  1  0  0  0  0
  1 29  1  0  0  0  0
  1 30  1  0  0  0  0
  1 31  1  0  0  0  0
  2  3  2  0  0  0  0
  2  4  2  0  0  0  0
  2  5  1  0  0  0  0
  5  6  1  0  0  0  0
  5 14  2  0  0  0  0
  6  7  2  0  0  0  0
  6 32  1  0  0  0  0
  7  8  1  0  0  0  0
  7 33  1  0  0  0  0
  8  9  1  0  0  0  0
  8 13  2  0  0  0  0
  9 10  2  0  0  0  0
  9 34  1  0  0  0  0
 10 11  1  0  0  0  0
 11 12  2  0  0  0  0
 11 35  1  0  0  0  0
 12 13  1  0  0  0  0
 12 15  1  0  0  0  0
 13 14  1  0  0  0  0
 14 36  1  0  0  0  0
 15 16  1  0  0  0  0
 15 37  1  0  0  0  0
 16 17  2  0  0  0  0
 16 18  1  0  0  0  0
 18 19  1  0  0  0  0
 18 23  1  0  0  0  0
 18 38  1  0  0  0  0
 19 20  1  0  0  0  0
 19 39  1  0  0  0  0
 19 40  1  0  0  0  0
 20 21  1  0  0  0  0
 20 41  1  0  0  0  0
 20 42  1  0  0  0  0
 21 22  1  0  0  0  0
 22 23  1  0  0  0  0
 22 27  2  0  0  0  0
 23 24  2  0  0  0  0
 24 25  1  0  0  0  0
 24 43  1  0  0  0  0
 25 26  2  0  0  0  0
 25 28  1  0  0  0  0
 26 27  1  0  0  0  0
 26 44  1  0  0  0  0
 27 45  1  0  0  0  0
M  END
$$$$
