
 OpenBabel07202414193D

 64 68  0  0  1  0  0  0  0  0999 V2000
   11.9472    8.3924    3.1101 N   0  0  0  0  0  0  0  0  0  0  0  0
   11.3692    7.7679    1.6641 S   0  0  0  0  0  0  0  0  0  0  0  0
   12.1580    8.3761    0.6205 O   0  0  0  0  0  0  0  0  0  0  0  0
   11.2995    6.3366    1.8424 O   0  0  0  0  0  0  0  0  0  0  0  0
    9.7313    8.4321    1.6178 C   0  0  0  0  0  0  0  0  0  0  0  0
    9.4779    9.6402    0.9549 C   0  0  0  0  0  0  0  0  0  0  0  0
    8.1903   10.1726    0.9721 C   0  0  0  0  0  0  0  0  0  0  0  0
    7.1512    9.5169    1.6450 C   0  0  0  0  0  0  0  0  0  0  0  0
    5.7707   10.1166    1.6879 C   0  0  0  0  0  0  0  0  0  0  0  0
    5.0317    9.8139    0.4840 N   0  0  0  0  0  0  0  0  0  0  0  0
    3.7637    9.3111    0.5234 C   0  0  0  0  0  0  0  0  0  0  0  0
    3.1484    9.1332    1.5700 O   0  0  0  0  0  0  0  0  0  0  0  0
    3.2062    8.8069   -0.7953 C   0  0  0  0  0  0  0  0  0  0  0  0
    3.1504    9.6565   -2.1064 C   0  0  3  0  0  0  0  0  0  0  0  0
    4.6141    9.8707   -2.6983 C   0  0  0  0  0  0  0  0  0  0  0  0
    5.5885    9.3905   -2.1235 O   0  0  0  0  0  0  0  0  0  0  0  0
    4.7099   10.6480   -3.8591 N   0  0  0  0  0  0  0  0  0  0  0  0
    5.9091   11.0389   -4.5726 C   0  0  0  0  0  0  0  0  0  0  0  0
    7.1804   10.5504   -4.2491 C   0  0  0  0  0  0  0  0  0  0  0  0
    8.3240   10.8206   -4.9344 N   0  0  0  0  0  0  0  0  0  0  0  0
    8.2275   11.6768   -5.9676 C   0  0  0  0  0  0  0  0  0  0  0  0
    7.0550   12.3193   -6.3366 C   0  0  0  0  0  0  0  0  0  0  0  0
    7.0840   13.3001   -7.3500 C   0  0  0  0  0  0  0  0  0  0  0  0
    5.9227   13.9661   -7.7185 C   0  0  0  0  0  0  0  0  0  0  0  0
    4.7246   13.6190   -7.1152 C   0  0  0  0  0  0  0  0  0  0  0  0
    4.6806   12.6430   -6.1107 C   0  0  0  0  0  0  0  0  0  0  0  0
    5.8450   11.9762   -5.6598 C   0  0  0  0  0  0  0  0  0  0  0  0
    2.3711    8.7012   -3.1031 C   0  0  0  0  0  0  0  0  0  0  0  0
    1.0228    9.1896   -3.6213 C   0  0  0  0  0  0  0  0  0  0  0  0
    0.3554   10.0343   -2.7028 O   0  0  0  0  0  0  0  0  0  0  0  0
    1.1245   11.1374   -2.4849 C   0  0  0  0  0  0  0  0  0  0  0  0
    0.5565   12.3739   -2.7866 C   0  0  0  0  0  0  0  0  0  0  0  0
    1.2779   13.5334   -2.5381 C   0  0  0  0  0  0  0  0  0  0  0  0
    2.5043   13.4389   -1.8839 C   0  0  0  0  0  0  0  0  0  0  0  0
    3.3546   14.8815   -1.4884 Cl  0  0  0  0  0  0  0  0  0  0  0  0
    3.0765   12.1893   -1.5983 C   0  0  0  0  0  0  0  0  0  0  0  0
    2.4292   11.0079   -1.9963 C   0  0  0  0  0  0  0  0  0  0  0  0
    7.4088    8.2782    2.2571 C   0  0  0  0  0  0  0  0  0  0  0  0
    8.6978    7.7378    2.2461 C   0  0  0  0  0  0  0  0  0  0  0  0
   12.7875    8.9426    2.9377 H   0  0  0  0  0  0  0  0  0  0  0  0
   12.0742    7.6449    3.7922 H   0  0  0  0  0  0  0  0  0  0  0  0
   10.2785   10.1665    0.4428 H   0  0  0  0  0  0  0  0  0  0  0  0
    8.0018   11.1148    0.4576 H   0  0  0  0  0  0  0  0  0  0  0  0
    5.8416   11.2062    1.7672 H   0  0  0  0  0  0  0  0  0  0  0  0
    5.2360    9.7685    2.5810 H   0  0  0  0  0  0  0  0  0  0  0  0
    5.5759    9.7077   -0.3810 H   0  0  0  0  0  0  0  0  0  0  0  0
    2.1805    8.4909   -0.5498 H   0  0  0  0  0  0  0  0  0  0  0  0
    3.7636    7.8774   -1.0006 H   0  0  0  0  0  0  0  0  0  0  0  0
    3.8535   11.0561   -4.1949 H   0  0  0  0  0  0  0  0  0  0  0  0
    7.3622    9.8981   -3.4023 H   0  0  0  0  0  0  0  0  0  0  0  0
    9.1630   11.8443   -6.5056 H   0  0  0  0  0  0  0  0  0  0  0  0
    8.0203   13.5716   -7.8370 H   0  0  0  0  0  0  0  0  0  0  0  0
    5.9591   14.7526   -8.4685 H   0  0  0  0  0  0  0  0  0  0  0  0
    3.8072   14.1253   -7.4140 H   0  0  0  0  0  0  0  0  0  0  0  0
    3.7126   12.4230   -5.6794 H   0  0  0  0  0  0  0  0  0  0  0  0
    2.1460    7.7522   -2.5928 H   0  0  0  0  0  0  0  0  0  0  0  0
    2.9909    8.3955   -3.9522 H   0  0  0  0  0  0  0  0  0  0  0  0
    0.3600    8.3325   -3.7941 H   0  0  0  0  0  0  0  0  0  0  0  0
    1.1212    9.7058   -4.5828 H   0  0  0  0  0  0  0  0  0  0  0  0
   -0.4237   12.4226   -3.2547 H   0  0  0  0  0  0  0  0  0  0  0  0
    0.8745   14.4962   -2.8400 H   0  0  0  0  0  0  0  0  0  0  0  0
    4.0564   12.1579   -1.1252 H   0  0  0  0  0  0  0  0  0  0  0  0
    6.6071    7.7309    2.7460 H   0  0  0  0  0  0  0  0  0  0  0  0
    8.8834    6.7838    2.7377 H   0  0  0  0  0  0  0  0  0  0  0  0
  1  2  1  0  0  0  0
  1 40  1  0  0  0  0
  1 41  1  0  0  0  0
  2  3  2  0  0  0  0
  2  4  2  0  0  0  0
  2  5  1  0  0  0  0
  5  6  1  0  0  0  0
  5 39  2  0  0  0  0
  6  7  2  0  0  0  0
  6 42  1  0  0  0  0
  7  8  1  0  0  0  0
  7 43  1  0  0  0  0
  8  9  1  0  0  0  0
  8 38  2  0  0  0  0
  9 10  1  0  0  0  0
  9 44  1  0  0  0  0
  9 45  1  0  0  0  0
 10 11  1  0  0  0  0
 10 46  1  0  0  0  0
 11 12  2  0  0  0  0
 11 13  1  0  0  0  0
 13 14  1  0  0  0  0
 13 47  1  0  0  0  0
 13 48  1  0  0  0  0
 14 15  1  0  0  0  0
 14 28  1  0  0  0  0
 14 37  1  0  0  0  0
 15 16  2  0  0  0  0
 15 17  1  0  0  0  0
 17 18  1  0  0  0  0
 17 49  1  0  0  0  0
 18 19  1  0  0  0  0
 18 27  2  0  0  0  0
 19 20  2  0  0  0  0
 19 50  1  0  0  0  0
 20 21  1  0  0  0  0
 21 22  2  0  0  0  0
 21 51  1  0  0  0  0
 22 23  1  0  0  0  0
 22 27  1  0  0  0  0
 23 24  2  0  0  0  0
 23 52  1  0  0  0  0
 24 25  1  0  0  0  0
 24 53  1  0  0  0  0
 25 26  2  0  0  0  0
 25 54  1  0  0  0  0
 26 27  1  0  0  0  0
 26 55  1  0  0  0  0
 28 29  1  0  0  0  0
 28 56  1  0  0  0  0
 28 57  1  0  0  0  0
 29 30  1  0  0  0  0
 29 58  1  0  0  0  0
 29 59  1  0  0  0  0
 30 31  1  0  0  0  0
 31 32  1  0  0  0  0
 31 37  2  0  0  0  0
 32 33  2  0  0  0  0
 32 60  1  0  0  0  0
 33 34  1  0  0  0  0
 33 61  1  0  0  0  0
 34 35  1  0  0  0  0
 34 36  2  0  0  0  0
 36 37  1  0  0  0  0
 36 62  1  0  0  0  0
 38 39  1  0  0  0  0
 38 63  1  0  0  0  0
 39 64  1  0  0  0  0
M  END
$$$$
