
 OpenBabel07202414163D

 44 47  0  0  0  0  0  0  0  0999 V2000
    0.8414   -1.6794    2.6383 Cl  0  0  0  0  0  0  0  0  0  0  0  0
    0.8592   -0.7416    1.1951 C   0  0  0  0  0  0  0  0  0  0  0  0
    1.5543    0.4685    1.1721 C   0  0  0  0  0  0  0  0  0  0  0  0
    1.5662    1.2417    0.0073 C   0  0  0  0  0  0  0  0  0  0  0  0
    2.3099    2.5543   -0.0579 C   0  0  0  0  0  0  0  0  0  0  0  0
    1.4518    3.7348   -0.4865 C   0  0  0  0  0  0  0  0  0  0  0  0
    1.8485    4.5292   -1.3357 O   0  0  0  0  0  0  0  0  0  0  0  0
    0.2725    3.8680    0.2231 N   0  0  0  0  0  0  0  0  0  0  0  0
   -0.6642    4.9019   -0.0129 C   0  0  0  0  0  0  0  0  0  0  0  0
   -0.9668    5.3224   -1.3098 C   0  0  0  0  0  0  0  0  0  0  0  0
   -1.8829    6.2694   -1.6121 N   0  0  0  0  0  0  0  0  0  0  0  0
   -2.5015    6.8565   -0.5655 C   0  0  0  0  0  0  0  0  0  0  0  0
   -2.2679    6.5415    0.7757 C   0  0  0  0  0  0  0  0  0  0  0  0
   -2.9135    7.2342    1.8159 C   0  0  0  0  0  0  0  0  0  0  0  0
   -2.6342    6.9364    3.1488 C   0  0  0  0  0  0  0  0  0  0  0  0
   -1.7133    5.9434    3.4569 C   0  0  0  0  0  0  0  0  0  0  0  0
   -1.0750    5.2431    2.4324 C   0  0  0  0  0  0  0  0  0  0  0  0
   -1.3327    5.5243    1.0678 C   0  0  0  0  0  0  0  0  0  0  0  0
    0.9048    0.7571   -1.1315 C   0  0  0  0  0  0  0  0  0  0  0  0
    0.2559   -0.4855   -1.1336 C   0  0  0  0  0  0  0  0  0  0  0  0
   -0.3580   -1.0053   -2.2910 N   0  0  0  0  0  0  0  0  0  0  0  0
    0.0048   -0.7245   -3.6187 C   0  0  0  0  0  0  0  0  0  0  0  0
    1.3446   -0.5929   -4.0073 C   0  0  0  0  0  0  0  0  0  0  0  0
    1.7416   -0.2389   -5.2591 N   0  0  0  0  0  0  0  0  0  0  0  0
    0.7402   -0.0497   -6.1369 C   0  0  0  0  0  0  0  0  0  0  0  0
    1.1778    0.5273   -7.8832 Br  0  0  0  0  0  0  0  0  0  0  0  0
   -0.5885   -0.2382   -5.7819 C   0  0  0  0  0  0  0  0  0  0  0  0
   -0.9839   -0.5788   -4.5231 N   0  0  0  0  0  0  0  0  0  0  0  0
    0.1987   -1.2105    0.0583 C   0  0  0  0  0  0  0  0  0  0  0  0
    2.0889    0.7985    2.0601 H   0  0  0  0  0  0  0  0  0  0  0  0
    3.1247    2.4458   -0.7847 H   0  0  0  0  0  0  0  0  0  0  0  0
    2.7683    2.8004    0.9068 H   0  0  0  0  0  0  0  0  0  0  0  0
    0.1901    3.3496    1.0868 H   0  0  0  0  0  0  0  0  0  0  0  0
   -0.4957    4.8689   -2.1779 H   0  0  0  0  0  0  0  0  0  0  0  0
   -3.2119    7.6303   -0.8469 H   0  0  0  0  0  0  0  0  0  0  0  0
   -3.6275    8.0246    1.5927 H   0  0  0  0  0  0  0  0  0  0  0  0
   -3.1242    7.4901    3.9447 H   0  0  0  0  0  0  0  0  0  0  0  0
   -1.4751    5.7231    4.4947 H   0  0  0  0  0  0  0  0  0  0  0  0
   -0.3378    4.5004    2.7233 H   0  0  0  0  0  0  0  0  0  0  0  0
    0.9091    1.3676   -2.0350 H   0  0  0  0  0  0  0  0  0  0  0  0
   -1.3738   -1.0071   -2.2395 H   0  0  0  0  0  0  0  0  0  0  0  0
    2.1511   -0.7453   -3.2993 H   0  0  0  0  0  0  0  0  0  0  0  0
   -1.3922   -0.1105   -6.4995 H   0  0  0  0  0  0  0  0  0  0  0  0
   -0.3197   -2.1655    0.0875 H   0  0  0  0  0  0  0  0  0  0  0  0
  1  2  1  0  0  0  0
  2  3  2  0  0  0  0
  2 29  1  0  0  0  0
  3  4  1  0  0  0  0
  3 30  1  0  0  0  0
  4  5  1  0  0  0  0
  4 19  2  0  0  0  0
  5  6  1  0  0  0  0
  5 31  1  0  0  0  0
  5 32  1  0  0  0  0
  6  7  2  0  0  0  0
  6  8  1  0  0  0  0
  8  9  1  0  0  0  0
  8 33  1  0  0  0  0
  9 10  2  0  0  0  0
  9 18  1  0  0  0  0
 10 11  1  0  0  0  0
 10 34  1  0  0  0  0
 11 12  2  0  0  0  0
 12 13  1  0  0  0  0
 12 35  1  0  0  0  0
 13 14  2  0  0  0  0
 13 18  1  0  0  0  0
 14 15  1  0  0  0  0
 14 36  1  0  0  0  0
 15 16  2  0  0  0  0
 15 37  1  0  0  0  0
 16 17  1  0  0  0  0
 16 38  1  0  0  0  0
 17 18  2  0  0  0  0
 17 39  1  0  0  0  0
 19 20  1  0  0  0  0
 19 40  1  0  0  0  0
 20 21  1  0  0  0  0
 20 29  2  0  0  0  0
 21 22  1  0  0  0  0
 21 41  1  0  0  0  0
 22 23  2  0  0  0  0
 22 28  1  0  0  0  0
 23 24  1  0  0  0  0
 23 42  1  0  0  0  0
 24 25  2  0  0  0  0
 25 26  1  0  0  0  0
 25 27  1  0  0  0  0
 27 28  2  0  0  0  0
 27 43  1  0  0  0  0
 29 44  1  0  0  0  0
M  END
$$$$
