
 OpenBabel07202414193D

 33 35  0  0  0  0  0  0  0  0999 V2000
   -5.9001   -2.4889   -3.1092 F   0  0  0  0  0  0  0  0  0  0  0  0
   -4.5667   -2.4560   -2.9940 C   0  0  0  0  0  0  0  0  0  0  0  0
   -3.7673   -2.2081   -4.0919 C   0  0  0  0  0  0  0  0  0  0  0  0
   -2.4158   -2.1618   -4.0324 N   0  0  0  0  0  0  0  0  0  0  0  0
   -1.8486   -2.3528   -2.8175 C   0  0  0  0  0  0  0  0  0  0  0  0
   -2.5719   -2.6068   -1.6503 C   0  0  0  0  0  0  0  0  0  0  0  0
   -1.8975   -2.7198   -0.3094 C   0  0  0  0  0  0  0  0  0  0  0  0
   -0.8109   -3.7731   -0.2323 C   0  0  0  0  0  0  0  0  0  0  0  0
    0.3761   -3.4753   -0.3353 O   0  0  0  0  0  0  0  0  0  0  0  0
   -1.2915   -5.0618   -0.0683 N   0  0  0  0  0  0  0  0  0  0  0  0
   -0.4432   -6.1836    0.0985 C   0  0  0  0  0  0  0  0  0  0  0  0
    0.6804   -6.1218    0.9270 C   0  0  0  0  0  0  0  0  0  0  0  0
    1.5013   -7.1653    1.1828 N   0  0  0  0  0  0  0  0  0  0  0  0
    1.2119   -8.3230    0.5524 C   0  0  0  0  0  0  0  0  0  0  0  0
    0.1358   -8.5040   -0.3207 C   0  0  0  0  0  0  0  0  0  0  0  0
   -0.0744   -9.7255   -0.9838 C   0  0  0  0  0  0  0  0  0  0  0  0
   -1.1240   -9.8749   -1.8877 C   0  0  0  0  0  0  0  0  0  0  0  0
   -1.9820   -8.8105   -2.1296 C   0  0  0  0  0  0  0  0  0  0  0  0
   -1.7937   -7.5953   -1.4677 C   0  0  0  0  0  0  0  0  0  0  0  0
   -0.7314   -7.4104   -0.5474 C   0  0  0  0  0  0  0  0  0  0  0  0
   -3.9684   -2.6594   -1.7575 C   0  0  0  0  0  0  0  0  0  0  0  0
   -4.2056   -2.0297   -5.0699 H   0  0  0  0  0  0  0  0  0  0  0  0
   -0.7628   -2.2772   -2.8087 H   0  0  0  0  0  0  0  0  0  0  0  0
   -2.6432   -2.9319    0.4774 H   0  0  0  0  0  0  0  0  0  0  0  0
   -1.4496   -1.7523   -0.0554 H   0  0  0  0  0  0  0  0  0  0  0  0
   -2.2376   -5.2362   -0.3785 H   0  0  0  0  0  0  0  0  0  0  0  0
    0.9418   -5.2119    1.4613 H   0  0  0  0  0  0  0  0  0  0  0  0
    1.9056   -9.1314    0.7642 H   0  0  0  0  0  0  0  0  0  0  0  0
    0.5991  -10.5655   -0.8179 H   0  0  0  0  0  0  0  0  0  0  0  0
   -1.2622  -10.8160   -2.4134 H   0  0  0  0  0  0  0  0  0  0  0  0
   -2.7903   -8.9140   -2.8497 H   0  0  0  0  0  0  0  0  0  0  0  0
   -2.4685   -6.7843   -1.7187 H   0  0  0  0  0  0  0  0  0  0  0  0
   -4.5994   -2.8299   -0.8927 H   0  0  0  0  0  0  0  0  0  0  0  0
  1  2  1  0  0  0  0
  2  3  1  0  0  0  0
  2 21  2  0  0  0  0
  3  4  2  0  0  0  0
  3 22  1  0  0  0  0
  4  5  1  0  0  0  0
  5  6  2  0  0  0  0
  5 23  1  0  0  0  0
  6  7  1  0  0  0  0
  6 21  1  0  0  0  0
  7  8  1  0  0  0  0
  7 24  1  0  0  0  0
  7 25  1  0  0  0  0
  8  9  2  0  0  0  0
  8 10  1  0  0  0  0
 10 11  1  0  0  0  0
 10 26  1  0  0  0  0
 11 12  1  0  0  0  0
 11 20  2  0  0  0  0
 12 13  2  0  0  0  0
 12 27  1  0  0  0  0
 13 14  1  0  0  0  0
 14 15  2  0  0  0  0
 14 28  1  0  0  0  0
 15 16  1  0  0  0  0
 15 20  1  0  0  0  0
 16 17  2  0  0  0  0
 16 29  1  0  0  0  0
 17 18  1  0  0  0  0
 17 30  1  0  0  0  0
 18 19  2  0  0  0  0
 18 31  1  0  0  0  0
 19 20  1  0  0  0  0
 19 32  1  0  0  0  0
 21 33  1  0  0  0  0
M  END
$$$$
