
 OpenBabel07202414123D

 25 25  0  0  1  0  0  0  0  0999 V2000
    0.9727    0.0798   -0.0839 C   0  0  0  0  0  0  0  0  0  0  0  0
    2.5010   -0.0007   -0.0593 C   0  0  3  0  0  0  0  0  0  0  0  0
    2.9747   -0.6628    1.1430 N   0  0  0  0  0  0  0  0  0  0  0  0
    3.1833   -0.0033    2.3309 C   0  0  0  0  0  0  0  0  0  0  0  0
    2.9357    1.1922    2.4767 O   0  0  0  0  0  0  0  0  0  0  0  0
    3.6536   -0.8621    3.4932 C   0  0  0  0  0  0  0  0  0  0  0  0
    4.5692   -2.2864    2.9426 Cl  0  0  0  0  0  0  0  0  0  0  0  0
    3.0506   -0.7215   -1.2752 C   0  0  0  0  0  0  0  0  0  0  0  0
    2.6655   -2.0353   -1.5855 C   0  0  0  0  0  0  0  0  0  0  0  0
    3.2171   -2.6857   -2.6830 C   0  0  0  0  0  0  0  0  0  0  0  0
    2.8402   -3.9425   -2.9565 F   0  0  0  0  0  0  0  0  0  0  0  0
    4.1569   -2.0650   -3.4932 C   0  0  0  0  0  0  0  0  0  0  0  0
    4.5448   -0.7644   -3.1949 C   0  0  0  0  0  0  0  0  0  0  0  0
    5.7102    0.0249   -4.1839 Cl  0  0  0  0  0  0  0  0  0  0  0  0
    4.0024   -0.0922   -2.0955 C   0  0  0  0  0  0  0  0  0  0  0  0
    0.5969    0.6464    0.7749 H   0  0  0  0  0  0  0  0  0  0  0  0
    0.5080   -0.9115   -0.0428 H   0  0  0  0  0  0  0  0  0  0  0  0
    0.6230    0.5759   -0.9963 H   0  0  0  0  0  0  0  0  0  0  0  0
    2.8817    1.0287   -0.0466 H   0  0  0  0  0  0  0  0  0  0  0  0
    3.2784   -1.6294    1.0851 H   0  0  0  0  0  0  0  0  0  0  0  0
    2.7842   -1.2079    4.0580 H   0  0  0  0  0  0  0  0  0  0  0  0
    4.3112   -0.2741    4.1382 H   0  0  0  0  0  0  0  0  0  0  0  0
    1.9409   -2.5692   -0.9776 H   0  0  0  0  0  0  0  0  0  0  0  0
    4.5744   -2.6001   -4.3392 H   0  0  0  0  0  0  0  0  0  0  0  0
    4.3287    0.9225   -1.8749 H   0  0  0  0  0  0  0  0  0  0  0  0
  1  2  1  0  0  0  0
  1 16  1  0  0  0  0
  1 17  1  0  0  0  0
  1 18  1  0  0  0  0
  2  3  1  0  0  0  0
  2  8  1  0  0  0  0
  2 19  1  0  0  0  0
  3  4  1  0  0  0  0
  3 20  1  0  0  0  0
  4  5  2  0  0  0  0
  4  6  1  0  0  0  0
  6  7  1  0  0  0  0
  6 21  1  0  0  0  0
  6 22  1  0  0  0  0
  8  9  1  0  0  0  0
  8 15  2  0  0  0  0
  9 10  2  0  0  0  0
  9 23  1  0  0  0  0
 10 11  1  0  0  0  0
 10 12  1  0  0  0  0
 12 13  2  0  0  0  0
 12 24  1  0  0  0  0
 13 14  1  0  0  0  0
 13 15  1  0  0  0  0
 15 25  1  0  0  0  0
M  END
$$$$
