
 OpenBabel07202414113D

 55 57  0  0  1  0  0  0  0  0999 V2000
    3.6849   -3.5340   -1.4182 C   0  0  0  0  0  0  0  0  0  0  0  0
    3.3938   -2.2624   -1.7135 C   0  0  0  0  0  0  0  0  0  0  0  0
    3.7035   -1.1750   -0.7399 C   0  0  0  0  0  0  0  0  0  0  0  0
    3.0562   -1.1811    0.3014 O   0  0  0  0  0  0  0  0  0  0  0  0
    4.6757   -0.2198   -1.1252 N   0  0  0  0  0  0  0  0  0  0  0  0
    5.0267    0.8915   -0.2449 C   0  0  0  0  0  0  0  0  0  0  0  0
    4.7660    0.8663    1.1312 C   0  0  0  0  0  0  0  0  0  0  0  0
    5.2052    1.8906    1.9874 C   0  0  0  0  0  0  0  0  0  0  0  0
    5.9156    2.9867    1.4919 C   0  0  0  0  0  0  0  0  0  0  0  0
    6.1669    3.0462    0.1265 C   0  0  0  0  0  0  0  0  0  0  0  0
    5.7395    2.0155   -0.7136 C   0  0  0  0  0  0  0  0  0  0  0  0
    6.4463    4.0752    2.3878 C   0  0  0  0  0  0  0  0  0  0  0  0
    6.1494    3.8962    3.7020 F   0  0  0  0  0  0  0  0  0  0  0  0
    7.8044    4.1678    2.3182 F   0  0  0  0  0  0  0  0  0  0  0  0
    5.9707    5.3044    2.0512 F   0  0  0  0  0  0  0  0  0  0  0  0
    5.3924   -0.3679   -2.4351 C   0  0  3  0  0  0  0  0  0  0  0  0
    5.0561    0.6800   -3.5006 C   0  0  0  0  0  0  0  0  0  0  0  0
    4.0858    1.6851   -3.3174 C   0  0  0  0  0  0  0  0  0  0  0  0
    3.9587    2.7120   -4.2454 C   0  0  0  0  0  0  0  0  0  0  0  0
    4.7220    2.6533   -5.3948 C   0  0  0  0  0  0  0  0  0  0  0  0
    5.5819    1.6449   -5.6700 N   0  0  0  0  0  0  0  0  0  0  0  0
    5.7306    0.6920   -4.7266 C   0  0  0  0  0  0  0  0  0  0  0  0
    2.9433    4.0543   -3.9193 Cl  0  0  0  0  0  0  0  0  0  0  0  0
    6.9282   -0.7109   -2.3210 C   0  0  0  0  0  0  0  0  0  0  0  0
    7.4786   -1.3575   -3.2123 O   0  0  0  0  0  0  0  0  0  0  0  0
    7.6718   -0.1749   -1.2899 N   0  0  0  0  0  0  0  0  0  0  0  0
    9.0972   -0.4187   -1.2124 C   0  0  0  0  0  0  0  0  0  0  0  0
    9.7831    0.3163   -0.0619 C   0  0  0  0  0  0  0  0  0  0  0  0
   11.2601    0.0084   -0.0675 C   0  0  0  0  0  0  0  0  0  0  0  0
   11.7590   -1.0981    0.6368 C   0  0  0  0  0  0  0  0  0  0  0  0
   13.1063   -1.4553    0.5370 C   0  0  0  0  0  0  0  0  0  0  0  0
   13.9661   -0.7109   -0.2684 C   0  0  0  0  0  0  0  0  0  0  0  0
   13.4747    0.3908   -0.9578 C   0  0  0  0  0  0  0  0  0  0  0  0
   12.1362    0.7584   -0.8636 C   0  0  0  0  0  0  0  0  0  0  0  0
   14.2975    1.0982   -1.7432 F   0  0  0  0  0  0  0  0  0  0  0  0
    3.4551   -4.3328   -2.1188 H   0  0  0  0  0  0  0  0  0  0  0  0
    4.1466   -3.8149   -0.4761 H   0  0  0  0  0  0  0  0  0  0  0  0
    2.9100   -1.9839   -2.6413 H   0  0  0  0  0  0  0  0  0  0  0  0
    4.2650    0.0300    1.6103 H   0  0  0  0  0  0  0  0  0  0  0  0
    4.9988    1.8051    3.0533 H   0  0  0  0  0  0  0  0  0  0  0  0
    6.7197    3.8827   -0.3010 H   0  0  0  0  0  0  0  0  0  0  0  0
    6.0362    2.1364   -1.7488 H   0  0  0  0  0  0  0  0  0  0  0  0
    5.0295   -1.2843   -2.9091 H   0  0  0  0  0  0  0  0  0  0  0  0
    3.4824    1.7254   -2.4141 H   0  0  0  0  0  0  0  0  0  0  0  0
    4.6741    3.4377   -6.1451 H   0  0  0  0  0  0  0  0  0  0  0  0
    6.4438   -0.0846   -4.9978 H   0  0  0  0  0  0  0  0  0  0  0  0
    7.2138    0.1455   -0.4532 H   0  0  0  0  0  0  0  0  0  0  0  0
    9.5369   -0.1185   -2.1729 H   0  0  0  0  0  0  0  0  0  0  0  0
    9.2410   -1.5070   -1.1179 H   0  0  0  0  0  0  0  0  0  0  0  0
    9.3424    0.0241    0.9013 H   0  0  0  0  0  0  0  0  0  0  0  0
    9.6252    1.4006   -0.1418 H   0  0  0  0  0  0  0  0  0  0  0  0
   11.0960   -1.7042    1.2513 H   0  0  0  0  0  0  0  0  0  0  0  0
   13.4804   -2.3229    1.0746 H   0  0  0  0  0  0  0  0  0  0  0  0
   15.0109   -0.9860   -0.3696 H   0  0  0  0  0  0  0  0  0  0  0  0
   11.7862    1.6134   -1.4349 H   0  0  0  0  0  0  0  0  0  0  0  0
  1  2  2  0  0  0  0
  1 36  1  0  0  0  0
  1 37  1  0  0  0  0
  2  3  1  0  0  0  0
  2 38  1  0  0  0  0
  3  4  2  0  0  0  0
  3  5  1  0  0  0  0
  5  6  1  0  0  0  0
  5 16  1  0  0  0  0
  6  7  1  0  0  0  0
  6 11  2  0  0  0  0
  7  8  2  0  0  0  0
  7 39  1  0  0  0  0
  8  9  1  0  0  0  0
  8 40  1  0  0  0  0
  9 10  2  0  0  0  0
  9 12  1  0  0  0  0
 10 11  1  0  0  0  0
 10 41  1  0  0  0  0
 11 42  1  0  0  0  0
 12 13  1  0  0  0  0
 12 14  1  0  0  0  0
 12 15  1  0  0  0  0
 16 17  1  0  0  0  0
 16 24  1  0  0  0  0
 16 43  1  0  0  0  0
 17 18  1  0  0  0  0
 17 22  2  0  0  0  0
 18 19  2  0  0  0  0
 18 44  1  0  0  0  0
 19 20  1  0  0  0  0
 19 23  1  0  0  0  0
 20 21  2  0  0  0  0
 20 45  1  0  0  0  0
 21 22  1  0  0  0  0
 22 46  1  0  0  0  0
 24 25  2  0  0  0  0
 24 26  1  0  0  0  0
 26 27  1  0  0  0  0
 26 47  1  0  0  0  0
 27 28  1  0  0  0  0
 27 48  1  0  0  0  0
 27 49  1  0  0  0  0
 28 29  1  0  0  0  0
 28 50  1  0  0  0  0
 28 51  1  0  0  0  0
 29 30  1  0  0  0  0
 29 34  2  0  0  0  0
 30 31  2  0  0  0  0
 30 52  1  0  0  0  0
 31 32  1  0  0  0  0
 31 53  1  0  0  0  0
 32 33  2  0  0  0  0
 32 54  1  0  0  0  0
 33 34  1  0  0  0  0
 33 35  1  0  0  0  0
 34 55  1  0  0  0  0
M  END
$$$$
