
 OpenBabel07202414133D

 66 70  0  0  0  0  0  0  0  0999 V2000
    3.5252   -0.3771   -1.9013 C   0  0  0  0  0  0  0  0  0  0  0  0
    3.4576    0.2460   -0.5120 C   0  0  0  0  0  0  0  0  0  0  0  0
    2.1183    0.7170   -0.1391 N   0  0  0  0  0  0  0  0  0  0  0  0
    1.6076    1.8277   -0.9813 C   0  0  0  0  0  0  0  0  0  0  0  0
    2.3152    3.1913   -0.7976 C   0  0  0  0  0  0  0  0  0  0  0  0
    2.4035    3.5503    0.6217 N   0  0  0  0  0  0  0  0  0  0  0  0
    2.0403    4.7920    1.1013 C   0  0  0  0  0  0  0  0  0  0  0  0
    0.8988    5.4540    0.6285 C   0  0  0  0  0  0  0  0  0  0  0  0
    0.5056    6.7026    1.1378 C   0  0  0  0  0  0  0  0  0  0  0  0
    1.2422    7.3185    2.1466 C   0  0  0  0  0  0  0  0  0  0  0  0
    0.8303    8.5763    2.6435 N   0  0  0  0  0  0  0  0  0  0  0  0
    1.0638    9.0779    3.9467 C   0  0  0  0  0  0  0  0  0  0  0  0
    1.3461   10.4387    4.1535 C   0  0  0  0  0  0  0  0  0  0  0  0
    1.6258   10.9283    5.4450 C   0  0  0  0  0  0  0  0  0  0  0  0
    1.8870   12.3856    5.7553 C   0  0  0  0  0  0  0  0  0  0  0  0
    2.5495   13.2218    4.6816 C   0  0  0  0  0  0  0  0  0  0  0  0
    1.9180   14.0704    4.0554 O   0  0  0  0  0  0  0  0  0  0  0  0
    3.9030   12.9506    4.5023 N   0  0  0  0  0  0  0  0  0  0  0  0
    4.6260   13.6898    3.5304 C   0  0  0  0  0  0  0  0  0  0  0  0
    4.6852   15.0838    3.6117 C   0  0  0  0  0  0  0  0  0  0  0  0
    5.2823   15.8767    2.6952 N   0  0  0  0  0  0  0  0  0  0  0  0
    5.7060   15.2609    1.5731 C   0  0  0  0  0  0  0  0  0  0  0  0
    5.6045   13.8865    1.3381 C   0  0  0  0  0  0  0  0  0  0  0  0
    5.8534   13.3348    0.0708 C   0  0  0  0  0  0  0  0  0  0  0  0
    5.7532   11.9604   -0.1357 C   0  0  0  0  0  0  0  0  0  0  0  0
    5.4982   11.1168    0.9385 C   0  0  0  0  0  0  0  0  0  0  0  0
    5.2145   11.6559    2.1940 C   0  0  0  0  0  0  0  0  0  0  0  0
    5.1722   13.0557    2.3939 C   0  0  0  0  0  0  0  0  0  0  0  0
    1.5526   10.0403    6.5294 C   0  0  0  0  0  0  0  0  0  0  0  0
    1.2288    8.7021    6.3342 C   0  0  0  0  0  0  0  0  0  0  0  0
    1.1261    7.6419    7.6851 Cl  0  0  0  0  0  0  0  0  0  0  0  0
    0.9827    8.2219    5.0551 C   0  0  0  0  0  0  0  0  0  0  0  0
    2.3994    6.6811    2.6043 C   0  0  0  0  0  0  0  0  0  0  0  0
    2.7804    5.4374    2.0978 C   0  0  0  0  0  0  0  0  0  0  0  0
    2.8893    2.5064    1.5264 C   0  0  0  0  0  0  0  0  0  0  0  0
    2.1127    1.1899    1.2743 C   0  0  0  0  0  0  0  0  0  0  0  0
    4.4887   -0.8823   -2.0304 H   0  0  0  0  0  0  0  0  0  0  0  0
    3.4444    0.3786   -2.6883 H   0  0  0  0  0  0  0  0  0  0  0  0
    2.7352   -1.1218   -2.0448 H   0  0  0  0  0  0  0  0  0  0  0  0
    4.2136    1.0377   -0.4463 H   0  0  0  0  0  0  0  0  0  0  0  0
    3.7543   -0.5348    0.1987 H   0  0  0  0  0  0  0  0  0  0  0  0
    0.5457    1.9578   -0.7414 H   0  0  0  0  0  0  0  0  0  0  0  0
    1.6232    1.5460   -2.0460 H   0  0  0  0  0  0  0  0  0  0  0  0
    1.7829    3.9486   -1.3895 H   0  0  0  0  0  0  0  0  0  0  0  0
    3.3279    3.1451   -1.2110 H   0  0  0  0  0  0  0  0  0  0  0  0
    0.2599    4.9796   -0.1118 H   0  0  0  0  0  0  0  0  0  0  0  0
   -0.4090    7.1573    0.7689 H   0  0  0  0  0  0  0  0  0  0  0  0
    0.8803    9.2860    1.9162 H   0  0  0  0  0  0  0  0  0  0  0  0
    1.3461   11.1189    3.3019 H   0  0  0  0  0  0  0  0  0  0  0  0
    2.5263   12.4612    6.6437 H   0  0  0  0  0  0  0  0  0  0  0  0
    0.9336   12.8642    6.0103 H   0  0  0  0  0  0  0  0  0  0  0  0
    4.1401   11.9730    4.6118 H   0  0  0  0  0  0  0  0  0  0  0  0
    4.2374   15.6183    4.4450 H   0  0  0  0  0  0  0  0  0  0  0  0
    6.1315   15.9291    0.8285 H   0  0  0  0  0  0  0  0  0  0  0  0
    6.0623   13.9837   -0.7777 H   0  0  0  0  0  0  0  0  0  0  0  0
    5.8756   11.5496   -1.1341 H   0  0  0  0  0  0  0  0  0  0  0  0
    5.4815   10.0397    0.7948 H   0  0  0  0  0  0  0  0  0  0  0  0
    5.0005   10.9648    3.0034 H   0  0  0  0  0  0  0  0  0  0  0  0
    1.7274   10.3998    7.5405 H   0  0  0  0  0  0  0  0  0  0  0  0
    0.7078    7.1792    4.9182 H   0  0  0  0  0  0  0  0  0  0  0  0
    3.0253    7.1470    3.3587 H   0  0  0  0  0  0  0  0  0  0  0  0
    3.6934    4.9829    2.4777 H   0  0  0  0  0  0  0  0  0  0  0  0
    2.7490    2.7750    2.5880 H   0  0  0  0  0  0  0  0  0  0  0  0
    3.9643    2.3575    1.3773 H   0  0  0  0  0  0  0  0  0  0  0  0
    1.0666    1.3405    1.5709 H   0  0  0  0  0  0  0  0  0  0  0  0
    2.4952    0.3958    1.9331 H   0  0  0  0  0  0  0  0  0  0  0  0
  1  2  1  0  0  0  0
  1 37  1  0  0  0  0
  1 38  1  0  0  0  0
  1 39  1  0  0  0  0
  2  3  1  0  0  0  0
  2 40  1  0  0  0  0
  2 41  1  0  0  0  0
  3  4  1  0  0  0  0
  3 36  1  0  0  0  0
  4  5  1  0  0  0  0
  4 42  1  0  0  0  0
  4 43  1  0  0  0  0
  5  6  1  0  0  0  0
  5 44  1  0  0  0  0
  5 45  1  0  0  0  0
  6  7  1  0  0  0  0
  6 35  1  0  0  0  0
  7  8  2  0  0  0  0
  7 34  1  0  0  0  0
  8  9  1  0  0  0  0
  8 46  1  0  0  0  0
  9 10  2  0  0  0  0
  9 47  1  0  0  0  0
 10 11  1  0  0  0  0
 10 33  1  0  0  0  0
 11 12  1  0  0  0  0
 11 48  1  0  0  0  0
 12 13  2  0  0  0  0
 12 32  1  0  0  0  0
 13 14  1  0  0  0  0
 13 49  1  0  0  0  0
 14 15  1  0  0  0  0
 14 29  2  0  0  0  0
 15 16  1  0  0  0  0
 15 50  1  0  0  0  0
 15 51  1  0  0  0  0
 16 17  2  0  0  0  0
 16 18  1  0  0  0  0
 18 19  1  0  0  0  0
 18 52  1  0  0  0  0
 19 20  2  0  0  0  0
 19 28  1  0  0  0  0
 20 21  1  0  0  0  0
 20 53  1  0  0  0  0
 21 22  2  0  0  0  0
 22 23  1  0  0  0  0
 22 54  1  0  0  0  0
 23 24  2  0  0  0  0
 23 28  1  0  0  0  0
 24 25  1  0  0  0  0
 24 55  1  0  0  0  0
 25 26  2  0  0  0  0
 25 56  1  0  0  0  0
 26 27  1  0  0  0  0
 26 57  1  0  0  0  0
 27 28  2  0  0  0  0
 27 58  1  0  0  0  0
 29 30  1  0  0  0  0
 29 59  1  0  0  0  0
 30 31  1  0  0  0  0
 30 32  2  0  0  0  0
 32 60  1  0  0  0  0
 33 34  2  0  0  0  0
 33 61  1  0  0  0  0
 34 62  1  0  0  0  0
 35 36  1  0  0  0  0
 35 63  1  0  0  0  0
 35 64  1  0  0  0  0
 36 65  1  0  0  0  0
 36 66  1  0  0  0  0
M  END
$$$$
