
 OpenBabel07202414193D

 56 60  0  0  0  0  0  0  0  0999 V2000
    1.5686    0.5332   -1.0965 O   0  0  0  0  0  0  0  0  0  0  0  0
    2.6431    0.2612   -0.5419 C   0  0  0  0  0  0  0  0  0  0  0  0
    3.4727   -0.9314   -1.0240 C   0  0  0  0  0  0  0  0  0  0  0  0
    3.7286   -2.0262   -0.1047 N   0  0  0  0  0  0  0  0  0  0  0  0
    4.8982   -2.6989   -0.2543 N   0  0  0  0  0  0  0  0  0  0  0  0
    4.9249   -3.7029    0.6087 N   0  0  0  0  0  0  0  0  0  0  0  0
    3.7514   -3.6751    1.3100 C   0  0  0  0  0  0  0  0  0  0  0  0
    3.2999   -4.5153    2.3518 C   0  0  0  0  0  0  0  0  0  0  0  0
    2.0572   -4.2530    2.9363 C   0  0  0  0  0  0  0  0  0  0  0  0
    1.2543   -3.2329    2.4677 C   0  0  0  0  0  0  0  0  0  0  0  0
    1.6627   -2.4268    1.3910 C   0  0  0  0  0  0  0  0  0  0  0  0
    2.9441   -2.6410    0.8622 C   0  0  0  0  0  0  0  0  0  0  0  0
    3.1984    1.0736    0.4823 N   0  0  0  0  0  0  0  0  0  0  0  0
    2.4461    2.3150    0.8009 C   0  0  0  0  0  0  0  0  0  0  0  0
    1.3787    2.1878    1.8794 C   0  0  0  0  0  0  0  0  0  0  0  0
    1.0017    1.0187    2.6212 C   0  0  0  0  0  0  0  0  0  0  0  0
   -0.1534    1.1848    3.3620 C   0  0  0  0  0  0  0  0  0  0  0  0
   -0.6724    2.8073    3.3682 S   0  0  0  0  0  0  0  0  0  0  0  0
    0.5864    3.2611    2.2981 C   0  0  0  0  0  0  0  0  0  0  0  0
    4.6317    1.2421    0.4254 C   0  0  0  0  0  0  0  0  0  0  0  0
    5.2484    1.7534   -0.7268 C   0  0  0  0  0  0  0  0  0  0  0  0
    6.6321    1.6281   -0.9227 C   0  0  0  0  0  0  0  0  0  0  0  0
    7.4350    1.0520    0.0550 C   0  0  0  0  0  0  0  0  0  0  0  0
    8.7825    0.8109   -0.1572 N   0  0  0  0  0  0  0  0  0  0  0  0
    9.6061    1.6202   -1.0534 C   0  0  0  0  0  0  0  0  0  0  0  0
   10.1473    0.7758   -2.2044 C   0  0  0  0  0  0  0  0  0  0  0  0
   10.8289   -0.4939   -1.6965 C   0  0  0  0  0  0  0  0  0  0  0  0
    9.9041   -1.2830   -0.7739 C   0  0  0  0  0  0  0  0  0  0  0  0
    9.3843   -0.4159    0.3707 C   0  0  0  0  0  0  0  0  0  0  0  0
    6.8233    0.7109    1.2658 C   0  0  0  0  0  0  0  0  0  0  0  0
    5.4331    0.7712    1.4514 C   0  0  0  0  0  0  0  0  0  0  0  0
    4.4486   -0.5948   -1.3840 H   0  0  0  0  0  0  0  0  0  0  0  0
    2.9703   -1.3880   -1.8874 H   0  0  0  0  0  0  0  0  0  0  0  0
    3.9140   -5.3372    2.6920 H   0  0  0  0  0  0  0  0  0  0  0  0
    1.7101   -4.8745    3.7672 H   0  0  0  0  0  0  0  0  0  0  0  0
    0.2818   -3.0378    2.9178 H   0  0  0  0  0  0  0  0  0  0  0  0
    0.9887   -1.6627    1.0229 H   0  0  0  0  0  0  0  0  0  0  0  0
    1.9421    2.6695   -0.1100 H   0  0  0  0  0  0  0  0  0  0  0  0
    3.1502    3.0952    1.1093 H   0  0  0  0  0  0  0  0  0  0  0  0
    1.5011    0.0655    2.5531 H   0  0  0  0  0  0  0  0  0  0  0  0
   -0.7112    0.4310    3.8975 H   0  0  0  0  0  0  0  0  0  0  0  0
    0.6377    4.2950    1.9857 H   0  0  0  0  0  0  0  0  0  0  0  0
    4.6744    2.2285   -1.5177 H   0  0  0  0  0  0  0  0  0  0  0  0
    7.0385    1.9426   -1.8748 H   0  0  0  0  0  0  0  0  0  0  0  0
   10.4414    2.0206   -0.4702 H   0  0  0  0  0  0  0  0  0  0  0  0
    9.0704    2.4887   -1.4466 H   0  0  0  0  0  0  0  0  0  0  0  0
   10.8632    1.3692   -2.7845 H   0  0  0  0  0  0  0  0  0  0  0  0
    9.3306    0.5022   -2.8836 H   0  0  0  0  0  0  0  0  0  0  0  0
   11.7447   -0.2276   -1.1549 H   0  0  0  0  0  0  0  0  0  0  0  0
   11.1281   -1.1185   -2.5452 H   0  0  0  0  0  0  0  0  0  0  0  0
   10.4380   -2.1480   -0.3644 H   0  0  0  0  0  0  0  0  0  0  0  0
    9.0602   -1.6731   -1.3572 H   0  0  0  0  0  0  0  0  0  0  0  0
   10.1987   -0.1457    1.0481 H   0  0  0  0  0  0  0  0  0  0  0  0
    8.6730   -1.0177    0.9515 H   0  0  0  0  0  0  0  0  0  0  0  0
    7.4391    0.3643    2.0903 H   0  0  0  0  0  0  0  0  0  0  0  0
    5.0195    0.4301    2.3980 H   0  0  0  0  0  0  0  0  0  0  0  0
  1  2  2  0  0  0  0
  2  3  1  0  0  0  0
  2 13  1  0  0  0  0
  3  4  1  0  0  0  0
  3 32  1  0  0  0  0
  3 33  1  0  0  0  0
  4  5  1  0  0  0  0
  4 12  1  0  0  0  0
  5  6  2  0  0  0  0
  6  7  1  0  0  0  0
  7  8  1  0  0  0  0
  7 12  2  0  0  0  0
  8  9  2  0  0  0  0
  8 34  1  0  0  0  0
  9 10  1  0  0  0  0
  9 35  1  0  0  0  0
 10 11  2  0  0  0  0
 10 36  1  0  0  0  0
 11 12  1  0  0  0  0
 11 37  1  0  0  0  0
 13 14  1  0  0  0  0
 13 20  1  0  0  0  0
 14 15  1  0  0  0  0
 14 38  1  0  0  0  0
 14 39  1  0  0  0  0
 15 16  1  0  0  0  0
 15 19  2  0  0  0  0
 16 17  2  0  0  0  0
 16 40  1  0  0  0  0
 17 18  1  0  0  0  0
 17 41  1  0  0  0  0
 18 19  1  0  0  0  0
 19 42  1  0  0  0  0
 20 21  1  0  0  0  0
 20 31  2  0  0  0  0
 21 22  2  0  0  0  0
 21 43  1  0  0  0  0
 22 23  1  0  0  0  0
 22 44  1  0  0  0  0
 23 24  1  0  0  0  0
 23 30  2  0  0  0  0
 24 25  1  0  0  0  0
 24 29  1  0  0  0  0
 25 26  1  0  0  0  0
 25 45  1  0  0  0  0
 25 46  1  0  0  0  0
 26 27  1  0  0  0  0
 26 47  1  0  0  0  0
 26 48  1  0  0  0  0
 27 28  1  0  0  0  0
 27 49  1  0  0  0  0
 27 50  1  0  0  0  0
 28 29  1  0  0  0  0
 28 51  1  0  0  0  0
 28 52  1  0  0  0  0
 29 53  1  0  0  0  0
 29 54  1  0  0  0  0
 30 31  1  0  0  0  0
 30 55  1  0  0  0  0
 31 56  1  0  0  0  0
M  END
$$$$
