
 OpenBabel07202414133D

 78 81  0  0  1  0  0  0  0  0999 V2000
    8.7673    4.5476   -5.4203 C   0  0  0  0  0  0  0  0  0  0  0  0
    7.3231    4.4155   -4.9696 C   0  0  0  0  0  0  0  0  0  0  0  0
    7.1950    3.4016   -3.9598 O   0  0  0  0  0  0  0  0  0  0  0  0
    7.4378    3.7681   -2.6557 C   0  0  0  0  0  0  0  0  0  0  0  0
    7.7858    4.8880   -2.3131 O   0  0  0  0  0  0  0  0  0  0  0  0
    7.2231    2.5807   -1.7526 C   0  0  0  0  0  0  0  0  0  0  0  0
    7.5760    2.8004   -0.3569 N   0  0  0  0  0  0  0  0  0  0  0  0
    8.8012    2.6376    0.2274 C   0  0  0  0  0  0  0  0  0  0  0  0
    8.5746    2.6438    1.6027 C   0  0  0  0  0  0  0  0  0  0  0  0
    9.6421    2.4775    2.6137 C   0  0  0  0  0  0  0  0  0  0  0  0
   10.7607    2.1937    2.1647 O   0  0  0  0  0  0  0  0  0  0  0  0
    9.4749    2.6846    4.0091 N   0  0  0  0  0  0  0  0  0  0  0  0
    8.2122    2.8631    4.8065 C   0  0  3  0  0  0  0  0  0  0  0  0
    7.1521    3.8631    4.3024 C   0  0  0  0  0  0  0  0  0  0  0  0
    7.4624    5.0244    4.0208 O   0  0  0  0  0  0  0  0  0  0  0  0
    5.8495    3.4025    4.2272 N   0  0  0  0  0  0  0  0  0  0  0  0
    4.8425    4.2325    3.5940 C   0  0  0  0  0  0  0  0  0  0  0  0
    3.5479    3.4809    3.2956 C   0  0  0  0  0  0  0  0  0  0  0  0
    2.5472    4.4096    2.6567 C   0  0  0  0  0  0  0  0  0  0  0  0
    1.7113    5.2049    3.4548 C   0  0  0  0  0  0  0  0  0  0  0  0
    0.8355    6.1226    2.8707 C   0  0  0  0  0  0  0  0  0  0  0  0
    0.7880    6.2526    1.4841 C   0  0  0  0  0  0  0  0  0  0  0  0
    1.6188    5.4672    0.6934 C   0  0  0  0  0  0  0  0  0  0  0  0
    1.5787    5.5998   -0.6393 F   0  0  0  0  0  0  0  0  0  0  0  0
    2.4983    4.5530    1.2638 C   0  0  0  0  0  0  0  0  0  0  0  0
    7.6481    1.6174    5.4845 C   0  0  0  0  0  0  0  0  0  0  0  0
    7.5701    0.3576    4.8930 C   0  0  0  0  0  0  0  0  0  0  0  0
    6.9497   -0.6882    5.5865 C   0  0  0  0  0  0  0  0  0  0  0  0
    6.4251   -0.4458    6.8442 C   0  0  0  0  0  0  0  0  0  0  0  0
    6.4771    0.7564    7.4492 N   0  0  0  0  0  0  0  0  0  0  0  0
    7.0862    1.7483    6.7655 C   0  0  0  0  0  0  0  0  0  0  0  0
   10.6646    2.5745    4.8398 C   0  0  0  0  0  0  0  0  0  0  0  0
   11.0085    3.6107    5.7130 C   0  0  0  0  0  0  0  0  0  0  0  0
   12.1184    3.5070    6.5690 C   0  0  0  0  0  0  0  0  0  0  0  0
   12.9311    2.3621    6.5934 C   0  0  0  0  0  0  0  0  0  0  0  0
   14.1335    2.2204    7.5518 C   0  0  0  0  0  0  0  0  0  0  0  0
   14.3843    3.4783    8.4193 C   0  0  0  0  0  0  0  0  0  0  0  0
   13.9033    1.0416    8.5235 C   0  0  0  0  0  0  0  0  0  0  0  0
   15.4368    1.9564    6.7656 C   0  0  0  0  0  0  0  0  0  0  0  0
   12.5891    1.3347    5.6916 C   0  0  0  0  0  0  0  0  0  0  0  0
   11.4847    1.4421    4.8220 C   0  0  0  0  0  0  0  0  0  0  0  0
    7.2238    2.7643    1.7876 N   0  0  0  0  0  0  0  0  0  0  0  0
    6.6240    2.8551    0.5997 N   0  0  0  0  0  0  0  0  0  0  0  0
    8.8494    5.2336   -6.2699 H   0  0  0  0  0  0  0  0  0  0  0  0
    9.1726    3.5744   -5.7157 H   0  0  0  0  0  0  0  0  0  0  0  0
    9.3967    4.9262   -4.6098 H   0  0  0  0  0  0  0  0  0  0  0  0
    6.7100    4.1012   -5.8201 H   0  0  0  0  0  0  0  0  0  0  0  0
    6.9217    5.3751   -4.6215 H   0  0  0  0  0  0  0  0  0  0  0  0
    7.8462    1.7513   -2.1074 H   0  0  0  0  0  0  0  0  0  0  0  0
    6.1691    2.2848   -1.7923 H   0  0  0  0  0  0  0  0  0  0  0  0
    9.7086    2.5145   -0.3476 H   0  0  0  0  0  0  0  0  0  0  0  0
    8.5484    3.4413    5.6812 H   0  0  0  0  0  0  0  0  0  0  0  0
    5.6717    2.4078    4.2769 H   0  0  0  0  0  0  0  0  0  0  0  0
    5.2660    4.6403    2.6699 H   0  0  0  0  0  0  0  0  0  0  0  0
    4.6585    5.0771    4.2661 H   0  0  0  0  0  0  0  0  0  0  0  0
    3.1262    3.0511    4.2136 H   0  0  0  0  0  0  0  0  0  0  0  0
    3.7424    2.6267    2.6317 H   0  0  0  0  0  0  0  0  0  0  0  0
    1.7524    5.1258    4.5397 H   0  0  0  0  0  0  0  0  0  0  0  0
    0.1997    6.7412    3.4987 H   0  0  0  0  0  0  0  0  0  0  0  0
    0.1168    6.9650    1.0163 H   0  0  0  0  0  0  0  0  0  0  0  0
    3.1519    3.9742    0.6172 H   0  0  0  0  0  0  0  0  0  0  0  0
    7.9744    0.1761    3.9012 H   0  0  0  0  0  0  0  0  0  0  0  0
    6.8709   -1.6775    5.1476 H   0  0  0  0  0  0  0  0  0  0  0  0
    5.9317   -1.2287    7.4130 H   0  0  0  0  0  0  0  0  0  0  0  0
    7.0921    2.7007    7.2915 H   0  0  0  0  0  0  0  0  0  0  0  0
   10.4436    4.5401    5.7183 H   0  0  0  0  0  0  0  0  0  0  0  0
   12.3236    4.3585    7.2118 H   0  0  0  0  0  0  0  0  0  0  0  0
   13.5279    3.6995    9.0671 H   0  0  0  0  0  0  0  0  0  0  0  0
   14.5808    4.3611    7.7994 H   0  0  0  0  0  0  0  0  0  0  0  0
   15.2539    3.3449    9.0738 H   0  0  0  0  0  0  0  0  0  0  0  0
   13.0177    1.2073    9.1475 H   0  0  0  0  0  0  0  0  0  0  0  0
   14.7611    0.9147    9.1966 H   0  0  0  0  0  0  0  0  0  0  0  0
   13.7664    0.0913    7.9967 H   0  0  0  0  0  0  0  0  0  0  0  0
   15.6619    2.7818    6.0808 H   0  0  0  0  0  0  0  0  0  0  0  0
   15.3882    1.0353    6.1758 H   0  0  0  0  0  0  0  0  0  0  0  0
   16.2906    1.8522    7.4477 H   0  0  0  0  0  0  0  0  0  0  0  0
   13.1799    0.4210    5.6532 H   0  0  0  0  0  0  0  0  0  0  0  0
   11.2679    0.6133    4.1521 H   0  0  0  0  0  0  0  0  0  0  0  0
  1  2  1  0  0  0  0
  1 44  1  0  0  0  0
  1 45  1  0  0  0  0
  1 46  1  0  0  0  0
  2  3  1  0  0  0  0
  2 47  1  0  0  0  0
  2 48  1  0  0  0  0
  3  4  1  0  0  0  0
  4  5  2  0  0  0  0
  4  6  1  0  0  0  0
  6  7  1  0  0  0  0
  6 49  1  0  0  0  0
  6 50  1  0  0  0  0
  7  8  1  0  0  0  0
  7 43  1  0  0  0  0
  8  9  2  0  0  0  0
  8 51  1  0  0  0  0
  9 10  1  0  0  0  0
  9 42  1  0  0  0  0
 10 11  2  0  0  0  0
 10 12  1  0  0  0  0
 12 13  1  0  0  0  0
 12 32  1  0  0  0  0
 13 14  1  0  0  0  0
 13 26  1  0  0  0  0
 13 52  1  0  0  0  0
 14 15  2  0  0  0  0
 14 16  1  0  0  0  0
 16 17  1  0  0  0  0
 16 53  1  0  0  0  0
 17 18  1  0  0  0  0
 17 54  1  0  0  0  0
 17 55  1  0  0  0  0
 18 19  1  0  0  0  0
 18 56  1  0  0  0  0
 18 57  1  0  0  0  0
 19 20  1  0  0  0  0
 19 25  2  0  0  0  0
 20 21  2  0  0  0  0
 20 58  1  0  0  0  0
 21 22  1  0  0  0  0
 21 59  1  0  0  0  0
 22 23  2  0  0  0  0
 22 60  1  0  0  0  0
 23 24  1  0  0  0  0
 23 25  1  0  0  0  0
 25 61  1  0  0  0  0
 26 27  1  0  0  0  0
 26 31  2  0  0  0  0
 27 28  2  0  0  0  0
 27 62  1  0  0  0  0
 28 29  1  0  0  0  0
 28 63  1  0  0  0  0
 29 30  2  0  0  0  0
 29 64  1  0  0  0  0
 30 31  1  0  0  0  0
 31 65  1  0  0  0  0
 32 33  1  0  0  0  0
 32 41  2  0  0  0  0
 33 34  2  0  0  0  0
 33 66  1  0  0  0  0
 34 35  1  0  0  0  0
 34 67  1  0  0  0  0
 35 36  1  0  0  0  0
 35 40  2  0  0  0  0
 36 37  1  0  0  0  0
 36 38  1  0  0  0  0
 36 39  1  0  0  0  0
 37 68  1  0  0  0  0
 37 69  1  0  0  0  0
 37 70  1  0  0  0  0
 38 71  1  0  0  0  0
 38 72  1  0  0  0  0
 38 73  1  0  0  0  0
 39 74  1  0  0  0  0
 39 75  1  0  0  0  0
 39 76  1  0  0  0  0
 40 41  1  0  0  0  0
 40 77  1  0  0  0  0
 41 78  1  0  0  0  0
 42 43  2  0  0  0  0
M  END
$$$$
