
 OpenBabel07202414173D

 52 56  0  0  0  0  0  0  0  0999 V2000
   -2.0852   -0.1160   -0.0920 Cl  0  0  0  0  0  0  0  0  0  0  0  0
   -0.3638   -0.0358   -0.0685 C   0  0  0  0  0  0  0  0  0  0  0  0
    0.2704    1.2075   -0.0019 C   0  0  0  0  0  0  0  0  0  0  0  0
    1.6657    1.2938    0.0290 C   0  0  0  0  0  0  0  0  0  0  0  0
    2.3623    2.4946    0.1832 N   0  0  0  0  0  0  0  0  0  0  0  0
    1.8027    3.7549   -0.2980 C   0  0  0  0  0  0  0  0  0  0  0  0
    2.7757    4.8760    0.0008 C   0  0  0  0  0  0  0  0  0  0  0  0
    3.3701    5.6199   -1.0374 C   0  0  0  0  0  0  0  0  0  0  0  0
    4.2525    6.6258   -0.6947 C   0  0  0  0  0  0  0  0  0  0  0  0
    4.5560    6.9149    0.6151 C   0  0  0  0  0  0  0  0  0  0  0  0
    5.4430    7.9403    0.7291 O   0  0  0  0  0  0  0  0  0  0  0  0
    5.6873    8.2425   -0.6606 C   0  0  0  0  0  0  0  0  0  0  0  0
    4.9109    7.4339   -1.5699 O   0  0  0  0  0  0  0  0  0  0  0  0
    3.9948    6.2182    1.6599 C   0  0  0  0  0  0  0  0  0  0  0  0
    3.0992    5.1877    1.3448 C   0  0  0  0  0  0  0  0  0  0  0  0
    2.3955    0.0907    0.0459 C   0  0  0  0  0  0  0  0  0  0  0  0
    1.7704   -1.1650   -0.0510 C   0  0  0  0  0  0  0  0  0  0  0  0
    2.5797   -2.4427   -0.0410 C   0  0  0  0  0  0  0  0  0  0  0  0
    3.6164   -2.5738   -1.1463 C   0  0  0  0  0  0  0  0  0  0  0  0
    4.7626   -2.9402   -0.8955 O   0  0  0  0  0  0  0  0  0  0  0  0
    3.1470   -2.2889   -2.4169 N   0  0  0  0  0  0  0  0  0  0  0  0
    3.9676   -2.3875   -3.5686 C   0  0  0  0  0  0  0  0  0  0  0  0
    4.7789   -3.5054   -3.7778 C   0  0  0  0  0  0  0  0  0  0  0  0
    5.5480   -3.6966   -4.8737 N   0  0  0  0  0  0  0  0  0  0  0  0
    5.5404   -2.7056   -5.7912 C   0  0  0  0  0  0  0  0  0  0  0  0
    4.7902   -1.5303   -5.6867 C   0  0  0  0  0  0  0  0  0  0  0  0
    4.8702   -0.5182   -6.6576 C   0  0  0  0  0  0  0  0  0  0  0  0
    4.1510    0.6669   -6.5098 C   0  0  0  0  0  0  0  0  0  0  0  0
    3.3423    0.8504   -5.3953 C   0  0  0  0  0  0  0  0  0  0  0  0
    3.2477   -0.1503   -4.4271 C   0  0  0  0  0  0  0  0  0  0  0  0
    3.9669   -1.3652   -4.5467 C   0  0  0  0  0  0  0  0  0  0  0  0
    0.3747   -1.2166   -0.1041 C   0  0  0  0  0  0  0  0  0  0  0  0
   -0.3446    2.1004    0.0534 H   0  0  0  0  0  0  0  0  0  0  0  0
    3.3506    2.4115   -0.0462 H   0  0  0  0  0  0  0  0  0  0  0  0
    0.8523    3.9917    0.1935 H   0  0  0  0  0  0  0  0  0  0  0  0
    1.6209    3.6910   -1.3774 H   0  0  0  0  0  0  0  0  0  0  0  0
    3.1496    5.4181   -2.0803 H   0  0  0  0  0  0  0  0  0  0  0  0
    6.7516    8.0820   -0.8700 H   0  0  0  0  0  0  0  0  0  0  0  0
    5.4525    9.2992   -0.8363 H   0  0  0  0  0  0  0  0  0  0  0  0
    4.2405    6.4514    2.6879 H   0  0  0  0  0  0  0  0  0  0  0  0
    2.6500    4.6113    2.1524 H   0  0  0  0  0  0  0  0  0  0  0  0
    3.4807    0.1337    0.1474 H   0  0  0  0  0  0  0  0  0  0  0  0
    1.9246   -3.3174   -0.1189 H   0  0  0  0  0  0  0  0  0  0  0  0
    3.0953   -2.5150    0.9252 H   0  0  0  0  0  0  0  0  0  0  0  0
    2.3419   -1.6792   -2.4736 H   0  0  0  0  0  0  0  0  0  0  0  0
    4.8048   -4.3267   -3.0667 H   0  0  0  0  0  0  0  0  0  0  0  0
    6.1879   -2.8841   -6.6448 H   0  0  0  0  0  0  0  0  0  0  0  0
    5.5111   -0.6399   -7.5282 H   0  0  0  0  0  0  0  0  0  0  0  0
    4.2354    1.4515   -7.2576 H   0  0  0  0  0  0  0  0  0  0  0  0
    2.7972    1.7832   -5.2655 H   0  0  0  0  0  0  0  0  0  0  0  0
    2.6270    0.0547   -3.5602 H   0  0  0  0  0  0  0  0  0  0  0  0
   -0.1423   -2.1726   -0.1432 H   0  0  0  0  0  0  0  0  0  0  0  0
  1  2  1  0  0  0  0
  2  3  2  0  0  0  0
  2 32  1  0  0  0  0
  3  4  1  0  0  0  0
  3 33  1  0  0  0  0
  4  5  1  0  0  0  0
  4 16  2  0  0  0  0
  5  6  1  0  0  0  0
  5 34  1  0  0  0  0
  6  7  1  0  0  0  0
  6 35  1  0  0  0  0
  6 36  1  0  0  0  0
  7  8  2  0  0  0  0
  7 15  1  0  0  0  0
  8  9  1  0  0  0  0
  8 37  1  0  0  0  0
  9 10  2  0  0  0  0
  9 13  1  0  0  0  0
 10 11  1  0  0  0  0
 10 14  1  0  0  0  0
 11 12  1  0  0  0  0
 12 13  1  0  0  0  0
 12 38  1  0  0  0  0
 12 39  1  0  0  0  0
 14 15  2  0  0  0  0
 14 40  1  0  0  0  0
 15 41  1  0  0  0  0
 16 17  1  0  0  0  0
 16 42  1  0  0  0  0
 17 18  1  0  0  0  0
 17 32  2  0  0  0  0
 18 19  1  0  0  0  0
 18 43  1  0  0  0  0
 18 44  1  0  0  0  0
 19 20  2  0  0  0  0
 19 21  1  0  0  0  0
 21 22  1  0  0  0  0
 21 45  1  0  0  0  0
 22 23  2  0  0  0  0
 22 31  1  0  0  0  0
 23 24  1  0  0  0  0
 23 46  1  0  0  0  0
 24 25  2  0  0  0  0
 25 26  1  0  0  0  0
 25 47  1  0  0  0  0
 26 27  2  0  0  0  0
 26 31  1  0  0  0  0
 27 28  1  0  0  0  0
 27 48  1  0  0  0  0
 28 29  2  0  0  0  0
 28 49  1  0  0  0  0
 29 30  1  0  0  0  0
 29 50  1  0  0  0  0
 30 31  2  0  0  0  0
 30 51  1  0  0  0  0
 32 52  1  0  0  0  0
M  END
$$$$
