
 OpenBabel07202414163D

 31 32  0  0  0  0  0  0  0  0999 V2000
    2.9986    2.1129    0.2161 C   0  0  0  0  0  0  0  0  0  0  0  0
    3.7807    0.9074   -0.1323 C   0  0  0  0  0  0  0  0  0  0  0  0
    4.2058   -0.1499    0.6532 C   0  0  0  0  0  0  0  0  0  0  0  0
    4.8735   -0.9609   -0.2371 N   0  0  0  0  0  0  0  0  0  0  0  0
    4.9699   -0.3746   -1.4390 N   0  0  0  0  0  0  0  0  0  0  0  0
    4.2492    0.7386   -1.4072 N   0  0  0  0  0  0  0  0  0  0  0  0
    5.5851   -2.0333    0.1717 N   0  0  0  0  0  0  0  0  0  0  0  0
    5.4605   -3.2111   -0.5307 C   0  0  0  0  0  0  0  0  0  0  0  0
    4.6397   -3.4190   -1.4202 O   0  0  0  0  0  0  0  0  0  0  0  0
    6.3860   -4.3148   -0.0410 C   0  0  0  0  0  0  0  0  0  0  0  0
    7.8261   -4.2535   -0.4962 C   0  0  0  0  0  0  0  0  0  0  0  0
    8.2108   -3.7267   -1.7370 C   0  0  0  0  0  0  0  0  0  0  0  0
    9.5519   -3.7571   -2.1396 C   0  0  0  0  0  0  0  0  0  0  0  0
   10.5255   -4.3298   -1.3170 C   0  0  0  0  0  0  0  0  0  0  0  0
   10.1486   -4.8809   -0.0984 C   0  0  0  0  0  0  0  0  0  0  0  0
    8.8135   -4.8508    0.3098 C   0  0  0  0  0  0  0  0  0  0  0  0
   11.3333   -5.6154    0.9109 Cl  0  0  0  0  0  0  0  0  0  0  0  0
    4.0423   -0.4264    2.0984 C   0  0  0  0  0  0  0  0  0  0  0  0
    2.6725    2.1005    1.2602 H   0  0  0  0  0  0  0  0  0  0  0  0
    2.1074    2.1870   -0.4141 H   0  0  0  0  0  0  0  0  0  0  0  0
    3.6046    3.0115    0.0612 H   0  0  0  0  0  0  0  0  0  0  0  0
    6.4820   -1.7856    0.5651 H   0  0  0  0  0  0  0  0  0  0  0  0
    5.9623   -5.2751   -0.3590 H   0  0  0  0  0  0  0  0  0  0  0  0
    6.3480   -4.3026    1.0562 H   0  0  0  0  0  0  0  0  0  0  0  0
    7.4741   -3.3029   -2.4193 H   0  0  0  0  0  0  0  0  0  0  0  0
    9.8370   -3.3452   -3.1053 H   0  0  0  0  0  0  0  0  0  0  0  0
   11.5608   -4.3557   -1.6422 H   0  0  0  0  0  0  0  0  0  0  0  0
    8.5395   -5.3139    1.2556 H   0  0  0  0  0  0  0  0  0  0  0  0
    3.7551    0.4815    2.6402 H   0  0  0  0  0  0  0  0  0  0  0  0
    4.9757   -0.7819    2.5461 H   0  0  0  0  0  0  0  0  0  0  0  0
    3.2640   -1.1765    2.2657 H   0  0  0  0  0  0  0  0  0  0  0  0
  1  2  1  0  0  0  0
  1 19  1  0  0  0  0
  1 20  1  0  0  0  0
  1 21  1  0  0  0  0
  2  3  2  0  0  0  0
  2  6  1  0  0  0  0
  3  4  1  0  0  0  0
  3 18  1  0  0  0  0
  4  5  1  0  0  0  0
  4  7  1  0  0  0  0
  5  6  2  0  0  0  0
  7  8  1  0  0  0  0
  7 22  1  0  0  0  0
  8  9  2  0  0  0  0
  8 10  1  0  0  0  0
 10 11  1  0  0  0  0
 10 23  1  0  0  0  0
 10 24  1  0  0  0  0
 11 12  1  0  0  0  0
 11 16  2  0  0  0  0
 12 13  2  0  0  0  0
 12 25  1  0  0  0  0
 13 14  1  0  0  0  0
 13 26  1  0  0  0  0
 14 15  2  0  0  0  0
 14 27  1  0  0  0  0
 15 16  1  0  0  0  0
 15 17  1  0  0  0  0
 16 28  1  0  0  0  0
 18 29  1  0  0  0  0
 18 30  1  0  0  0  0
 18 31  1  0  0  0  0
M  END
$$$$
