
 OpenBabel07202414203D

 54 58  0  0  0  0  0  0  0  0999 V2000
    8.4930    5.0292   -5.8794 O   0  5  0  0  0  0  0  0  0  0  0  0
    7.2610    4.9302   -5.8048 N   0  3  0  0  0  0  0  0  0  0  0  0
    6.4787    4.9171   -6.7650 O   0  0  0  0  0  0  0  0  0  0  0  0
    6.6859    4.8719   -4.4718 C   0  0  0  0  0  0  0  0  0  0  0  0
    6.9369    5.9741   -3.6493 C   0  0  0  0  0  0  0  0  0  0  0  0
    6.4114    5.9859   -2.3689 C   0  0  0  0  0  0  0  0  0  0  0  0
    5.6025    4.9287   -1.9133 C   0  0  0  0  0  0  0  0  0  0  0  0
    5.0810    4.9758   -0.5886 N   0  0  0  0  0  0  0  0  0  0  0  0
    4.5954    6.1283    0.0745 C   0  0  0  0  0  0  0  0  0  0  0  0
    4.6486    6.2128    1.4730 C   0  0  0  0  0  0  0  0  0  0  0  0
    4.0662    7.2930    2.1610 C   0  0  0  0  0  0  0  0  0  0  0  0
    4.1670    7.3913    3.6656 C   0  0  0  0  0  0  0  0  0  0  0  0
    3.5943    6.2117    4.4274 C   0  0  0  0  0  0  0  0  0  0  0  0
    4.2779    5.5914    5.2420 O   0  0  0  0  0  0  0  0  0  0  0  0
    2.2771    5.9208    4.1344 N   0  0  0  0  0  0  0  0  0  0  0  0
    1.5873    4.8714    4.7882 C   0  0  0  0  0  0  0  0  0  0  0  0
    1.5750    4.7802    6.1806 C   0  0  0  0  0  0  0  0  0  0  0  0
    0.8692    3.8607    6.8778 N   0  0  0  0  0  0  0  0  0  0  0  0
    0.1595    2.9740    6.1461 C   0  0  0  0  0  0  0  0  0  0  0  0
    0.1165    2.9470    4.7492 C   0  0  0  0  0  0  0  0  0  0  0  0
   -0.6208    1.9778    4.0455 C   0  0  0  0  0  0  0  0  0  0  0  0
   -0.6111    1.9489    2.6513 C   0  0  0  0  0  0  0  0  0  0  0  0
    0.1461    2.8748    1.9438 C   0  0  0  0  0  0  0  0  0  0  0  0
    0.8731    3.8470    2.6298 C   0  0  0  0  0  0  0  0  0  0  0  0
    0.8566    3.9211    4.0427 C   0  0  0  0  0  0  0  0  0  0  0  0
    3.4230    8.2995    1.4264 C   0  0  0  0  0  0  0  0  0  0  0  0
    3.3811    8.2298    0.0361 C   0  0  0  0  0  0  0  0  0  0  0  0
    2.5984    9.4704   -0.8639 Cl  0  0  0  0  0  0  0  0  0  0  0  0
    3.9540    7.1533   -0.6341 C   0  0  0  0  0  0  0  0  0  0  0  0
    5.3753    3.7894   -2.7415 C   0  0  0  0  0  0  0  0  0  0  0  0
    4.5905    2.6933   -2.3100 C   0  0  0  0  0  0  0  0  0  0  0  0
    4.3511    1.5866   -3.1229 C   0  0  0  0  0  0  0  0  0  0  0  0
    4.9050    1.5373   -4.3953 C   0  0  0  0  0  0  0  0  0  0  0  0
    5.6757    2.6041   -4.8541 C   0  0  0  0  0  0  0  0  0  0  0  0
    5.9234    3.7502   -4.0541 C   0  0  0  0  0  0  0  0  0  0  0  0
    7.5303    6.8154   -3.9976 H   0  0  0  0  0  0  0  0  0  0  0  0
    6.6262    6.8348   -1.7222 H   0  0  0  0  0  0  0  0  0  0  0  0
    5.6068    4.3531    0.0188 H   0  0  0  0  0  0  0  0  0  0  0  0
    5.1589    5.4344    2.0402 H   0  0  0  0  0  0  0  0  0  0  0  0
    3.6677    8.2930    4.0377 H   0  0  0  0  0  0  0  0  0  0  0  0
    5.2272    7.4836    3.9326 H   0  0  0  0  0  0  0  0  0  0  0  0
    1.9593    6.1742    3.2085 H   0  0  0  0  0  0  0  0  0  0  0  0
    2.1116    5.4951    6.7993 H   0  0  0  0  0  0  0  0  0  0  0  0
   -0.3873    2.2449    6.7403 H   0  0  0  0  0  0  0  0  0  0  0  0
   -1.2016    1.2306    4.5828 H   0  0  0  0  0  0  0  0  0  0  0  0
   -1.1843    1.1963    2.1167 H   0  0  0  0  0  0  0  0  0  0  0  0
    0.1808    2.8403    0.8579 H   0  0  0  0  0  0  0  0  0  0  0  0
    1.4828    4.5248    2.0379 H   0  0  0  0  0  0  0  0  0  0  0  0
    2.9548    9.1426    1.9305 H   0  0  0  0  0  0  0  0  0  0  0  0
    3.8841    7.1075   -1.7182 H   0  0  0  0  0  0  0  0  0  0  0  0
    4.1361    2.7004   -1.3202 H   0  0  0  0  0  0  0  0  0  0  0  0
    3.7457    0.7597   -2.7625 H   0  0  0  0  0  0  0  0  0  0  0  0
    4.7258    0.6794   -5.0376 H   0  0  0  0  0  0  0  0  0  0  0  0
    6.0767    2.5277   -5.8642 H   0  0  0  0  0  0  0  0  0  0  0  0
  1  2  1  0  0  0  0
  2  3  2  0  0  0  0
  2  4  1  0  0  0  0
  4  5  2  0  0  0  0
  4 35  1  0  0  0  0
  5  6  1  0  0  0  0
  5 36  1  0  0  0  0
  6  7  2  0  0  0  0
  6 37  1  0  0  0  0
  7  8  1  0  0  0  0
  7 30  1  0  0  0  0
  8  9  1  0  0  0  0
  8 38  1  0  0  0  0
  9 10  2  0  0  0  0
  9 29  1  0  0  0  0
 10 11  1  0  0  0  0
 10 39  1  0  0  0  0
 11 12  1  0  0  0  0
 11 26  2  0  0  0  0
 12 13  1  0  0  0  0
 12 40  1  0  0  0  0
 12 41  1  0  0  0  0
 13 14  2  0  0  0  0
 13 15  1  0  0  0  0
 15 16  1  0  0  0  0
 15 42  1  0  0  0  0
 16 17  2  0  0  0  0
 16 25  1  0  0  0  0
 17 18  1  0  0  0  0
 17 43  1  0  0  0  0
 18 19  2  0  0  0  0
 19 20  1  0  0  0  0
 19 44  1  0  0  0  0
 20 21  2  0  0  0  0
 20 25  1  0  0  0  0
 21 22  1  0  0  0  0
 21 45  1  0  0  0  0
 22 23  2  0  0  0  0
 22 46  1  0  0  0  0
 23 24  1  0  0  0  0
 23 47  1  0  0  0  0
 24 25  2  0  0  0  0
 24 48  1  0  0  0  0
 26 27  1  0  0  0  0
 26 49  1  0  0  0  0
 27 28  1  0  0  0  0
 27 29  2  0  0  0  0
 29 50  1  0  0  0  0
 30 31  2  0  0  0  0
 30 35  1  0  0  0  0
 31 32  1  0  0  0  0
 31 51  1  0  0  0  0
 32 33  2  0  0  0  0
 32 52  1  0  0  0  0
 33 34  1  0  0  0  0
 33 53  1  0  0  0  0
 34 35  2  0  0  0  0
 34 54  1  0  0  0  0
M  CHG  2   1  -1   2   1
M  END
$$$$
