
 OpenBabel07202414143D

 51 54  0  0  1  0  0  0  0  0999 V2000
    1.2243    0.0462    0.0657 C   0  0  0  0  0  0  0  0  0  0  0  0
    2.5753   -0.0353   -0.4541 N   0  0  0  0  0  0  0  0  0  0  0  0
    3.4458    1.1382   -0.3435 C   0  0  0  0  0  0  0  0  0  0  0  0
    4.6802    1.0887   -1.2917 C   0  0  1  0  0  0  0  0  0  0  0  0
    5.4910    2.4072   -1.1688 C   0  0  0  0  0  0  0  0  0  0  0  0
    4.7085    3.6732   -1.5107 C   0  0  0  0  0  0  0  0  0  0  0  0
    4.4953    4.6705   -0.5453 C   0  0  0  0  0  0  0  0  0  0  0  0
    3.8040    5.8418   -0.8631 C   0  0  0  0  0  0  0  0  0  0  0  0
    3.3158    6.0419   -2.1550 C   0  0  0  0  0  0  0  0  0  0  0  0
    3.5226    5.0639   -3.1252 C   0  0  0  0  0  0  0  0  0  0  0  0
    4.2148    3.8894   -2.8071 C   0  0  0  0  0  0  0  0  0  0  0  0
    5.3844   -0.2187   -1.0709 N   0  0  0  0  0  0  0  0  0  0  0  0
    6.7896   -0.4007   -1.0465 C   0  0  0  0  0  0  0  0  0  0  0  0
    7.5851    0.5291   -1.1162 O   0  0  0  0  0  0  0  0  0  0  0  0
    7.2244   -1.8632   -0.9014 C   0  0  0  0  0  0  0  0  0  0  0  0
    8.6413   -2.3600   -0.7338 C   0  0  0  0  0  0  0  0  0  0  0  0
    9.7623   -1.5435   -0.7546 C   0  0  0  0  0  0  0  0  0  0  0  0
   11.0202   -1.9787   -0.5137 N   0  0  0  0  0  0  0  0  0  0  0  0
   11.1805   -3.3012   -0.2781 C   0  0  0  0  0  0  0  0  0  0  0  0
   10.1617   -4.2416   -0.3121 C   0  0  0  0  0  0  0  0  0  0  0  0
   10.4099   -5.6220   -0.1464 C   0  0  0  0  0  0  0  0  0  0  0  0
    9.3751   -6.5509   -0.1943 C   0  0  0  0  0  0  0  0  0  0  0  0
    8.0713   -6.1081   -0.3748 C   0  0  0  0  0  0  0  0  0  0  0  0
    7.8146   -4.7407   -0.5306 C   0  0  0  0  0  0  0  0  0  0  0  0
    8.8505   -3.7677   -0.5272 C   0  0  0  0  0  0  0  0  0  0  0  0
    4.4873   -1.3772   -1.2227 C   0  0  0  0  0  0  0  0  0  0  0  0
    3.1440   -1.2984   -0.5120 C   0  0  0  0  0  0  0  0  0  0  0  0
    2.5435   -2.3244   -0.1916 O   0  0  0  0  0  0  0  0  0  0  0  0
    0.8574    1.0717    0.0334 H   0  0  0  0  0  0  0  0  0  0  0  0
    1.1951   -0.3444    1.0871 H   0  0  0  0  0  0  0  0  0  0  0  0
    0.5812   -0.5810   -0.5645 H   0  0  0  0  0  0  0  0  0  0  0  0
    3.7769    1.1959    0.7013 H   0  0  0  0  0  0  0  0  0  0  0  0
    2.8304    2.0153   -0.5632 H   0  0  0  0  0  0  0  0  0  0  0  0
    4.3082    1.0231   -2.3234 H   0  0  0  0  0  0  0  0  0  0  0  0
    6.3443    2.3925   -1.8558 H   0  0  0  0  0  0  0  0  0  0  0  0
    5.9033    2.4919   -0.1558 H   0  0  0  0  0  0  0  0  0  0  0  0
    4.8785    4.5513    0.4661 H   0  0  0  0  0  0  0  0  0  0  0  0
    3.6562    6.6136   -0.1103 H   0  0  0  0  0  0  0  0  0  0  0  0
    2.7884    6.9582   -2.4052 H   0  0  0  0  0  0  0  0  0  0  0  0
    3.1543    5.2234   -4.1354 H   0  0  0  0  0  0  0  0  0  0  0  0
    4.3786    3.1547   -3.5917 H   0  0  0  0  0  0  0  0  0  0  0  0
    6.8385   -2.3775   -1.7902 H   0  0  0  0  0  0  0  0  0  0  0  0
    6.7213   -2.2026    0.0141 H   0  0  0  0  0  0  0  0  0  0  0  0
    9.7063   -0.4806   -0.9728 H   0  0  0  0  0  0  0  0  0  0  0  0
   12.2042   -3.5958   -0.0544 H   0  0  0  0  0  0  0  0  0  0  0  0
   11.4270   -5.9811    0.0006 H   0  0  0  0  0  0  0  0  0  0  0  0
    9.5795   -7.6142   -0.0972 H   0  0  0  0  0  0  0  0  0  0  0  0
    7.2514   -6.8197   -0.3985 H   0  0  0  0  0  0  0  0  0  0  0  0
    6.7743   -4.4490   -0.6623 H   0  0  0  0  0  0  0  0  0  0  0  0
    4.9349   -2.3105   -0.8844 H   0  0  0  0  0  0  0  0  0  0  0  0
    4.2850   -1.4812   -2.2953 H   0  0  0  0  0  0  0  0  0  0  0  0
  1  2  1  0  0  0  0
  1 29  1  0  0  0  0
  1 30  1  0  0  0  0
  1 31  1  0  0  0  0
  2  3  1  0  0  0  0
  2 27  1  0  0  0  0
  3  4  1  0  0  0  0
  3 32  1  0  0  0  0
  3 33  1  0  0  0  0
  4  5  1  0  0  0  0
  4 12  1  0  0  0  0
  4 34  1  6  0  0  0
  5  6  1  0  0  0  0
  5 35  1  0  0  0  0
  5 36  1  0  0  0  0
  6  7  1  0  0  0  0
  6 11  2  0  0  0  0
  7  8  2  0  0  0  0
  7 37  1  0  0  0  0
  8  9  1  0  0  0  0
  8 38  1  0  0  0  0
  9 10  2  0  0  0  0
  9 39  1  0  0  0  0
 10 11  1  0  0  0  0
 10 40  1  0  0  0  0
 11 41  1  0  0  0  0
 12 13  1  0  0  0  0
 12 26  1  0  0  0  0
 13 14  2  0  0  0  0
 13 15  1  0  0  0  0
 15 16  1  0  0  0  0
 15 42  1  0  0  0  0
 15 43  1  0  0  0  0
 16 17  1  0  0  0  0
 16 25  2  0  0  0  0
 17 18  2  0  0  0  0
 17 44  1  0  0  0  0
 18 19  1  0  0  0  0
 19 20  2  0  0  0  0
 19 45  1  0  0  0  0
 20 21  1  0  0  0  0
 20 25  1  0  0  0  0
 21 22  2  0  0  0  0
 21 46  1  0  0  0  0
 22 23  1  0  0  0  0
 22 47  1  0  0  0  0
 23 24  2  0  0  0  0
 23 48  1  0  0  0  0
 24 25  1  0  0  0  0
 24 49  1  0  0  0  0
 26 27  1  0  0  0  0
 26 50  1  0  0  0  0
 26 51  1  0  0  0  0
 27 28  2  0  0  0  0
M  END
$$$$
