
 OpenBabel07202414153D

 63 66  0  0  1  0  0  0  0  0999 V2000
    0.0332    1.9617    0.2832 C   0  0  0  0  0  0  0  0  0  0  0  0
   -0.2105    2.8097   -0.8314 O   0  0  0  0  0  0  0  0  0  0  0  0
    0.8725    2.9250   -1.6800 C   0  0  0  0  0  0  0  0  0  0  0  0
    0.6668    3.6887   -2.8145 C   0  0  0  0  0  0  0  0  0  0  0  0
    1.7009    3.7945   -3.7411 C   0  0  0  0  0  0  0  0  0  0  0  0
    2.9020    3.1228   -3.5282 C   0  0  0  0  0  0  0  0  0  0  0  0
    3.9568    3.1251   -4.4762 N   0  0  0  0  0  0  0  0  0  0  0  0
    3.7665    3.3388   -5.8452 C   0  0  0  0  0  0  0  0  0  0  0  0
    2.6613    3.3897   -6.3816 O   0  0  0  0  0  0  0  0  0  0  0  0
    5.0718    3.4836   -6.6703 C   0  0  3  0  0  0  0  0  0  0  0  0
    5.0984    2.5060   -7.8030 N   0  0  0  0  0  0  0  0  0  0  0  0
    4.5342    2.7560   -9.0738 C   0  0  0  0  0  0  0  0  0  0  0  0
    4.0536    3.8414   -9.3910 O   0  0  0  0  0  0  0  0  0  0  0  0
    4.5703    1.7253  -10.1216 C   0  0  0  0  0  0  0  0  0  0  0  0
    4.6103    2.0125  -11.4745 C   0  0  0  0  0  0  0  0  0  0  0  0
    4.6025    0.8443  -12.1722 O   0  0  0  0  0  0  0  0  0  0  0  0
    4.5334   -0.1064  -11.2021 C   0  0  0  0  0  0  0  0  0  0  0  0
    4.5077    0.3515   -9.9745 N   0  0  0  0  0  0  0  0  0  0  0  0
    5.5948    1.2165   -7.4851 C   0  0  0  0  0  0  0  0  0  0  0  0
    6.8974    0.8925   -7.8507 C   0  0  0  0  0  0  0  0  0  0  0  0
    7.3731   -0.4093   -7.6708 C   0  0  0  0  0  0  0  0  0  0  0  0
    6.5683   -1.4226   -7.1192 C   0  0  0  0  0  0  0  0  0  0  0  0
    7.0816   -2.8650   -6.9352 C   0  0  0  0  0  0  0  0  0  0  0  0
    8.5458   -3.0532   -7.3980 C   0  0  0  0  0  0  0  0  0  0  0  0
    7.0182   -3.2455   -5.4416 C   0  0  0  0  0  0  0  0  0  0  0  0
    6.2269   -3.8703   -7.7389 C   0  0  0  0  0  0  0  0  0  0  0  0
    5.2582   -1.0639   -6.7345 C   0  0  0  0  0  0  0  0  0  0  0  0
    4.7754    0.2420   -6.9088 C   0  0  0  0  0  0  0  0  0  0  0  0
    5.3399    4.9533   -6.9998 C   0  0  0  0  0  0  0  0  0  0  0  0
    4.3688    5.7934   -7.5655 C   0  0  0  0  0  0  0  0  0  0  0  0
    4.6531    7.1150   -7.8840 C   0  0  0  0  0  0  0  0  0  0  0  0
    5.9015    7.5987   -7.5638 C   0  0  0  0  0  0  0  0  0  0  0  0
    6.8585    6.8563   -6.9629 N   0  0  0  0  0  0  0  0  0  0  0  0
    6.5592    5.5579   -6.7038 C   0  0  0  0  0  0  0  0  0  0  0  0
    3.0295    2.4372   -2.3200 C   0  0  0  0  0  0  0  0  0  0  0  0
    2.0433    2.3139   -1.3945 N   0  0  0  0  0  0  0  0  0  0  0  0
   -0.8899    1.9130    0.8700 H   0  0  0  0  0  0  0  0  0  0  0  0
    0.8160    2.3756    0.9265 H   0  0  0  0  0  0  0  0  0  0  0  0
    0.2775    0.9420   -0.0341 H   0  0  0  0  0  0  0  0  0  0  0  0
   -0.2836    4.1813   -2.9870 H   0  0  0  0  0  0  0  0  0  0  0  0
    1.5407    4.4117   -4.6199 H   0  0  0  0  0  0  0  0  0  0  0  0
    4.8421    2.7327   -4.1746 H   0  0  0  0  0  0  0  0  0  0  0  0
    5.8966    3.1769   -6.0088 H   0  0  0  0  0  0  0  0  0  0  0  0
    4.6500    2.9252  -12.0504 H   0  0  0  0  0  0  0  0  0  0  0  0
    4.5037   -1.1346  -11.5376 H   0  0  0  0  0  0  0  0  0  0  0  0
    7.5386    1.6343   -8.3189 H   0  0  0  0  0  0  0  0  0  0  0  0
    8.3873   -0.6092   -8.0058 H   0  0  0  0  0  0  0  0  0  0  0  0
    9.2290   -2.3958   -6.8476 H   0  0  0  0  0  0  0  0  0  0  0  0
    8.6578   -2.8420   -8.4687 H   0  0  0  0  0  0  0  0  0  0  0  0
    8.8877   -4.0817   -7.2364 H   0  0  0  0  0  0  0  0  0  0  0  0
    7.6174   -2.5578   -4.8340 H   0  0  0  0  0  0  0  0  0  0  0  0
    7.4023   -4.2590   -5.2762 H   0  0  0  0  0  0  0  0  0  0  0  0
    5.9939   -3.2238   -5.0538 H   0  0  0  0  0  0  0  0  0  0  0  0
    6.2709   -3.6632   -8.8143 H   0  0  0  0  0  0  0  0  0  0  0  0
    5.1737   -3.8571   -7.4399 H   0  0  0  0  0  0  0  0  0  0  0  0
    6.5893   -4.8958   -7.5876 H   0  0  0  0  0  0  0  0  0  0  0  0
    4.5803   -1.8119   -6.3275 H   0  0  0  0  0  0  0  0  0  0  0  0
    3.7377    0.4593   -6.6631 H   0  0  0  0  0  0  0  0  0  0  0  0
    3.3772    5.4114   -7.8101 H   0  0  0  0  0  0  0  0  0  0  0  0
    3.9176    7.7378   -8.3825 H   0  0  0  0  0  0  0  0  0  0  0  0
    6.1770    8.6280   -7.7871 H   0  0  0  0  0  0  0  0  0  0  0  0
    7.3651    5.0171   -6.2154 H   0  0  0  0  0  0  0  0  0  0  0  0
    3.9459    1.9158   -2.0545 H   0  0  0  0  0  0  0  0  0  0  0  0
  1  2  1  0  0  0  0
  1 37  1  0  0  0  0
  1 38  1  0  0  0  0
  1 39  1  0  0  0  0
  2  3  1  0  0  0  0
  3  4  1  0  0  0  0
  3 36  2  0  0  0  0
  4  5  2  0  0  0  0
  4 40  1  0  0  0  0
  5  6  1  0  0  0  0
  5 41  1  0  0  0  0
  6  7  1  0  0  0  0
  6 35  2  0  0  0  0
  7  8  1  0  0  0  0
  7 42  1  0  0  0  0
  8  9  2  0  0  0  0
  8 10  1  0  0  0  0
 10 11  1  0  0  0  0
 10 29  1  0  0  0  0
 10 43  1  0  0  0  0
 11 12  1  0  0  0  0
 11 19  1  0  0  0  0
 12 13  2  0  0  0  0
 12 14  1  0  0  0  0
 14 15  2  0  0  0  0
 14 18  1  0  0  0  0
 15 16  1  0  0  0  0
 15 44  1  0  0  0  0
 16 17  1  0  0  0  0
 17 18  2  0  0  0  0
 17 45  1  0  0  0  0
 19 20  1  0  0  0  0
 19 28  2  0  0  0  0
 20 21  2  0  0  0  0
 20 46  1  0  0  0  0
 21 22  1  0  0  0  0
 21 47  1  0  0  0  0
 22 23  1  0  0  0  0
 22 27  2  0  0  0  0
 23 24  1  0  0  0  0
 23 25  1  0  0  0  0
 23 26  1  0  0  0  0
 24 48  1  0  0  0  0
 24 49  1  0  0  0  0
 24 50  1  0  0  0  0
 25 51  1  0  0  0  0
 25 52  1  0  0  0  0
 25 53  1  0  0  0  0
 26 54  1  0  0  0  0
 26 55  1  0  0  0  0
 26 56  1  0  0  0  0
 27 28  1  0  0  0  0
 27 57  1  0  0  0  0
 28 58  1  0  0  0  0
 29 30  1  0  0  0  0
 29 34  2  0  0  0  0
 30 31  2  0  0  0  0
 30 59  1  0  0  0  0
 31 32  1  0  0  0  0
 31 60  1  0  0  0  0
 32 33  2  0  0  0  0
 32 61  1  0  0  0  0
 33 34  1  0  0  0  0
 34 62  1  0  0  0  0
 35 36  1  0  0  0  0
 35 63  1  0  0  0  0
M  END
$$$$
