
 OpenBabel07202414153D

 32 33  0  0  0  0  0  0  0  0999 V2000
    6.7030   -3.8400   -1.3705 C   0  0  0  0  0  0  0  0  0  0  0  0
    5.9268   -3.0613   -0.4554 O   0  0  0  0  0  0  0  0  0  0  0  0
    4.7031   -2.6274   -0.9210 C   0  0  0  0  0  0  0  0  0  0  0  0
    4.1103   -3.1084   -2.0923 C   0  0  0  0  0  0  0  0  0  0  0  0
    2.8897   -2.5881   -2.4848 C   0  0  0  0  0  0  0  0  0  0  0  0
    2.2359   -1.6362   -1.7985 N   0  0  0  0  0  0  0  0  0  0  0  0
    2.8094   -1.1993   -0.6553 C   0  0  0  0  0  0  0  0  0  0  0  0
    4.0258   -1.6652   -0.1509 C   0  0  0  0  0  0  0  0  0  0  0  0
    4.5893   -1.2180    1.0743 N   0  0  0  0  0  0  0  0  0  0  0  0
    3.9457   -0.4279    2.0151 C   0  0  0  0  0  0  0  0  0  0  0  0
    2.7923   -0.0060    1.9311 O   0  0  0  0  0  0  0  0  0  0  0  0
    4.7653   -0.1285    3.2588 C   0  0  0  0  0  0  0  0  0  0  0  0
    4.6943   -1.2519    4.2629 C   0  0  0  0  0  0  0  0  0  0  0  0
    3.4619   -1.6310    4.8208 C   0  0  0  0  0  0  0  0  0  0  0  0
    3.3801   -2.7219    5.6869 C   0  0  0  0  0  0  0  0  0  0  0  0
    4.5320   -3.4363    6.0171 C   0  0  0  0  0  0  0  0  0  0  0  0
    5.7605   -3.0419    5.4937 C   0  0  0  0  0  0  0  0  0  0  0  0
    7.1847   -3.9198    5.9008 Cl  0  0  0  0  0  0  0  0  0  0  0  0
    5.8503   -1.9544    4.6277 C   0  0  0  0  0  0  0  0  0  0  0  0
    7.6800   -4.0267   -0.9201 H   0  0  0  0  0  0  0  0  0  0  0  0
    6.8644   -3.2996   -2.3114 H   0  0  0  0  0  0  0  0  0  0  0  0
    6.2328   -4.8130   -1.5557 H   0  0  0  0  0  0  0  0  0  0  0  0
    4.5534   -3.8774   -2.7097 H   0  0  0  0  0  0  0  0  0  0  0  0
    2.3939   -2.9373   -3.3830 H   0  0  0  0  0  0  0  0  0  0  0  0
    2.2297   -0.4261   -0.1621 H   0  0  0  0  0  0  0  0  0  0  0  0
    5.4848   -1.6346    1.3050 H   0  0  0  0  0  0  0  0  0  0  0  0
    4.3817    0.7915    3.7142 H   0  0  0  0  0  0  0  0  0  0  0  0
    5.8009    0.0857    2.9662 H   0  0  0  0  0  0  0  0  0  0  0  0
    2.5507   -1.0908    4.5628 H   0  0  0  0  0  0  0  0  0  0  0  0
    2.4174   -3.0219    6.0924 H   0  0  0  0  0  0  0  0  0  0  0  0
    4.4625   -4.2964    6.6774 H   0  0  0  0  0  0  0  0  0  0  0  0
    6.8179   -1.6603    4.2292 H   0  0  0  0  0  0  0  0  0  0  0  0
  1  2  1  0  0  0  0
  1 20  1  0  0  0  0
  1 21  1  0  0  0  0
  1 22  1  0  0  0  0
  2  3  1  0  0  0  0
  3  4  1  0  0  0  0
  3  8  2  0  0  0  0
  4  5  2  0  0  0  0
  4 23  1  0  0  0  0
  5  6  1  0  0  0  0
  5 24  1  0  0  0  0
  6  7  2  0  0  0  0
  7  8  1  0  0  0  0
  7 25  1  0  0  0  0
  8  9  1  0  0  0  0
  9 10  1  0  0  0  0
  9 26  1  0  0  0  0
 10 11  2  0  0  0  0
 10 12  1  0  0  0  0
 12 13  1  0  0  0  0
 12 27  1  0  0  0  0
 12 28  1  0  0  0  0
 13 14  1  0  0  0  0
 13 19  2  0  0  0  0
 14 15  2  0  0  0  0
 14 29  1  0  0  0  0
 15 16  1  0  0  0  0
 15 30  1  0  0  0  0
 16 17  2  0  0  0  0
 16 31  1  0  0  0  0
 17 18  1  0  0  0  0
 17 19  1  0  0  0  0
 19 32  1  0  0  0  0
M  END
$$$$
