
 OpenBabel07202414113D

 51 53  0  0  0  0  0  0  0  0999 V2000
    0.9093    1.1773   -1.8166 C   0  0  0  0  0  0  0  0  0  0  0  0
    2.4091    1.0448   -1.8066 C   0  0  0  0  0  0  0  0  0  0  0  0
    2.9781    0.0045   -1.5027 O   0  0  0  0  0  0  0  0  0  0  0  0
    3.0591    2.2033   -2.1707 N   0  0  0  0  0  0  0  0  0  0  0  0
    4.5098    2.2793   -2.2296 C   0  0  0  0  0  0  0  0  0  0  0  0
    5.1242    2.6367   -0.8775 C   0  0  0  0  0  0  0  0  0  0  0  0
    6.6224    2.7250   -0.8504 C   0  0  0  0  0  0  0  0  0  0  0  0
    7.5299    2.5049   -1.8682 C   0  0  0  0  0  0  0  0  0  0  0  0
    8.7958    2.6401   -1.3603 N   0  0  0  0  0  0  0  0  0  0  0  0
    8.7554    2.9689   -0.0217 C   0  0  0  0  0  0  0  0  0  0  0  0
    9.7973    3.1688    0.9128 C   0  0  0  0  0  0  0  0  0  0  0  0
   11.2775    2.9977    0.6303 C   0  0  0  0  0  0  0  0  0  0  0  0
   12.1132    4.1671    0.3503 N   0  0  0  0  0  0  0  0  0  0  0  0
   12.0485    5.2909    1.2812 C   0  0  0  0  0  0  0  0  0  0  0  0
   10.9092    6.2912    1.0164 C   0  0  0  0  0  0  0  0  0  0  0  0
   10.7010    6.6446   -0.3920 N   0  0  0  0  0  0  0  0  0  0  0  0
    9.7274    7.5782   -0.7890 C   0  0  0  0  0  0  0  0  0  0  0  0
    9.5176    7.8029   -1.9825 O   0  0  0  0  0  0  0  0  0  0  0  0
    8.9287    8.2365    0.3308 C   0  0  0  0  0  0  0  0  0  0  0  0
    7.7092    9.3649   -0.2981 Cl  0  0  0  0  0  0  0  0  0  0  0  0
   11.0364    5.6456   -1.4058 C   0  0  0  0  0  0  0  0  0  0  0  0
   12.1388    4.6490   -1.0286 C   0  0  0  0  0  0  0  0  0  0  0  0
    9.3744    3.4314    2.2386 C   0  0  0  0  0  0  0  0  0  0  0  0
    8.0325    3.5281    2.5988 C   0  0  0  0  0  0  0  0  0  0  0  0
    7.0383    3.3363    1.6438 C   0  0  0  0  0  0  0  0  0  0  0  0
    7.3991    3.0370    0.3158 C   0  0  0  0  0  0  0  0  0  0  0  0
    0.4542    0.2002   -1.6308 H   0  0  0  0  0  0  0  0  0  0  0  0
    0.5731    1.5373   -2.7931 H   0  0  0  0  0  0  0  0  0  0  0  0
    0.5927    1.8726   -1.0348 H   0  0  0  0  0  0  0  0  0  0  0  0
    2.5252    3.0556   -2.2826 H   0  0  0  0  0  0  0  0  0  0  0  0
    4.7564    3.0399   -2.9778 H   0  0  0  0  0  0  0  0  0  0  0  0
    4.8963    1.3169   -2.5835 H   0  0  0  0  0  0  0  0  0  0  0  0
    4.8114    1.8933   -0.1333 H   0  0  0  0  0  0  0  0  0  0  0  0
    4.7098    3.5975   -0.5428 H   0  0  0  0  0  0  0  0  0  0  0  0
    7.3876    2.2350   -2.9069 H   0  0  0  0  0  0  0  0  0  0  0  0
    9.6438    2.5031   -1.8916 H   0  0  0  0  0  0  0  0  0  0  0  0
   11.3995    2.2600   -0.1728 H   0  0  0  0  0  0  0  0  0  0  0  0
   11.7128    2.4967    1.5059 H   0  0  0  0  0  0  0  0  0  0  0  0
   12.9976    5.8390    1.1928 H   0  0  0  0  0  0  0  0  0  0  0  0
   12.0227    4.9478    2.3218 H   0  0  0  0  0  0  0  0  0  0  0  0
   11.1273    7.2173    1.5620 H   0  0  0  0  0  0  0  0  0  0  0  0
    9.9633    5.9117    1.4051 H   0  0  0  0  0  0  0  0  0  0  0  0
    9.5883    8.7980    0.9949 H   0  0  0  0  0  0  0  0  0  0  0  0
    8.3883    7.4674    0.8897 H   0  0  0  0  0  0  0  0  0  0  0  0
   11.3343    6.1692   -2.3242 H   0  0  0  0  0  0  0  0  0  0  0  0
   10.1144    5.1042   -1.6388 H   0  0  0  0  0  0  0  0  0  0  0  0
   13.1047    5.1532   -1.1733 H   0  0  0  0  0  0  0  0  0  0  0  0
   12.1505    3.8149   -1.7406 H   0  0  0  0  0  0  0  0  0  0  0  0
   10.1231    3.5498    3.0221 H   0  0  0  0  0  0  0  0  0  0  0  0
    7.7557    3.7264    3.6293 H   0  0  0  0  0  0  0  0  0  0  0  0
    5.9911    3.3846    1.9295 H   0  0  0  0  0  0  0  0  0  0  0  0
  1  2  1  0  0  0  0
  1 27  1  0  0  0  0
  1 28  1  0  0  0  0
  1 29  1  0  0  0  0
  2  3  2  0  0  0  0
  2  4  1  0  0  0  0
  4  5  1  0  0  0  0
  4 30  1  0  0  0  0
  5  6  1  0  0  0  0
  5 31  1  0  0  0  0
  5 32  1  0  0  0  0
  6  7  1  0  0  0  0
  6 33  1  0  0  0  0
  6 34  1  0  0  0  0
  7  8  2  0  0  0  0
  7 26  1  0  0  0  0
  8  9  1  0  0  0  0
  8 35  1  0  0  0  0
  9 10  1  0  0  0  0
  9 36  1  0  0  0  0
 10 11  1  0  0  0  0
 10 26  2  0  0  0  0
 11 12  1  0  0  0  0
 11 23  2  0  0  0  0
 12 13  1  0  0  0  0
 12 37  1  0  0  0  0
 12 38  1  0  0  0  0
 13 14  1  0  0  0  0
 13 22  1  0  0  0  0
 14 15  1  0  0  0  0
 14 39  1  0  0  0  0
 14 40  1  0  0  0  0
 15 16  1  0  0  0  0
 15 41  1  0  0  0  0
 15 42  1  0  0  0  0
 16 17  1  0  0  0  0
 16 21  1  0  0  0  0
 17 18  2  0  0  0  0
 17 19  1  0  0  0  0
 19 20  1  0  0  0  0
 19 43  1  0  0  0  0
 19 44  1  0  0  0  0
 21 22  1  0  0  0  0
 21 45  1  0  0  0  0
 21 46  1  0  0  0  0
 22 47  1  0  0  0  0
 22 48  1  0  0  0  0
 23 24  1  0  0  0  0
 23 49  1  0  0  0  0
 24 25  2  0  0  0  0
 24 50  1  0  0  0  0
 25 26  1  0  0  0  0
 25 51  1  0  0  0  0
M  END
$$$$
