
 OpenBabel07202414193D

 47 50  0  0  0  0  0  0  0  0999 V2000
    1.4067   -0.1282   -1.0740 O   0  0  0  0  0  0  0  0  0  0  0  0
    2.3213   -0.1714   -0.2429 C   0  0  0  0  0  0  0  0  0  0  0  0
    2.6916    1.1002    0.5094 C   0  0  0  0  0  0  0  0  0  0  0  0
    1.8925    1.4136    1.7573 C   0  0  0  0  0  0  0  0  0  0  0  0
    0.8174    0.6165    2.1527 C   0  0  0  0  0  0  0  0  0  0  0  0
    0.0585    0.8415    3.2457 N   0  0  0  0  0  0  0  0  0  0  0  0
    0.3586    1.9352    3.9773 C   0  0  0  0  0  0  0  0  0  0  0  0
    1.3913    2.8231    3.6868 C   0  0  0  0  0  0  0  0  0  0  0  0
    1.6398    3.9496    4.4932 C   0  0  0  0  0  0  0  0  0  0  0  0
    2.6742    4.8294    4.1866 C   0  0  0  0  0  0  0  0  0  0  0  0
    3.4661    4.5939    3.0700 C   0  0  0  0  0  0  0  0  0  0  0  0
    3.2253    3.4784    2.2612 C   0  0  0  0  0  0  0  0  0  0  0  0
    2.1862    2.5608    2.5477 C   0  0  0  0  0  0  0  0  0  0  0  0
    3.0304   -1.3534   -0.0042 N   0  0  0  0  0  0  0  0  0  0  0  0
    2.7893   -2.4233   -0.9869 C   0  0  0  0  0  0  0  0  0  0  0  0
    3.6120   -3.7183   -1.0337 C   0  0  0  0  0  0  0  0  0  0  0  0
    5.1353   -3.5432   -1.0092 C   0  0  0  0  0  0  0  0  0  0  0  0
    5.8260   -3.7642    0.3528 C   0  0  0  0  0  0  0  0  0  0  0  0
    4.8829   -3.8294    1.5306 C   0  0  0  0  0  0  0  0  0  0  0  0
    4.8012   -5.0179    2.2740 C   0  0  0  0  0  0  0  0  0  0  0  0
    3.8133   -5.1834    3.2431 C   0  0  0  0  0  0  0  0  0  0  0  0
    2.9022   -4.1614    3.4881 C   0  0  0  0  0  0  0  0  0  0  0  0
    2.9988   -2.9594    2.7891 C   0  0  0  0  0  0  0  0  0  0  0  0
    3.9933   -2.7734    1.8147 C   0  0  0  0  0  0  0  0  0  0  0  0
    4.0368   -1.4751    1.0517 C   0  0  0  0  0  0  0  0  0  0  0  0
    2.5334    1.9214   -0.2038 H   0  0  0  0  0  0  0  0  0  0  0  0
    3.7646    1.1009    0.7237 H   0  0  0  0  0  0  0  0  0  0  0  0
    0.5075   -0.2598    1.5880 H   0  0  0  0  0  0  0  0  0  0  0  0
   -0.2878    2.0878    4.8374 H   0  0  0  0  0  0  0  0  0  0  0  0
    1.0222    4.1478    5.3671 H   0  0  0  0  0  0  0  0  0  0  0  0
    2.8579    5.6973    4.8145 H   0  0  0  0  0  0  0  0  0  0  0  0
    4.2715    5.2804    2.8220 H   0  0  0  0  0  0  0  0  0  0  0  0
    3.8652    3.3421    1.3926 H   0  0  0  0  0  0  0  0  0  0  0  0
    2.8706   -1.9564   -1.9780 H   0  0  0  0  0  0  0  0  0  0  0  0
    1.7332   -2.7053   -0.8784 H   0  0  0  0  0  0  0  0  0  0  0  0
    3.3546   -4.2086   -1.9824 H   0  0  0  0  0  0  0  0  0  0  0  0
    3.2601   -4.4270   -0.2767 H   0  0  0  0  0  0  0  0  0  0  0  0
    5.4077   -2.5581   -1.4077 H   0  0  0  0  0  0  0  0  0  0  0  0
    5.5758   -4.2623   -1.7133 H   0  0  0  0  0  0  0  0  0  0  0  0
    6.5734   -2.9795    0.5261 H   0  0  0  0  0  0  0  0  0  0  0  0
    6.4051   -4.6954    0.2945 H   0  0  0  0  0  0  0  0  0  0  0  0
    5.4786   -5.8443    2.0690 H   0  0  0  0  0  0  0  0  0  0  0  0
    3.7355   -6.1226    3.7840 H   0  0  0  0  0  0  0  0  0  0  0  0
    2.1083   -4.3016    4.2172 H   0  0  0  0  0  0  0  0  0  0  0  0
    2.2731   -2.1733    2.9887 H   0  0  0  0  0  0  0  0  0  0  0  0
    5.0157   -1.2858    0.6000 H   0  0  0  0  0  0  0  0  0  0  0  0
    3.9144   -0.6789    1.7919 H   0  0  0  0  0  0  0  0  0  0  0  0
  1  2  2  0  0  0  0
  2  3  1  0  0  0  0
  2 14  1  0  0  0  0
  3  4  1  0  0  0  0
  3 26  1  0  0  0  0
  3 27  1  0  0  0  0
  4  5  1  0  0  0  0
  4 13  2  0  0  0  0
  5  6  2  0  0  0  0
  5 28  1  0  0  0  0
  6  7  1  0  0  0  0
  7  8  2  0  0  0  0
  7 29  1  0  0  0  0
  8  9  1  0  0  0  0
  8 13  1  0  0  0  0
  9 10  2  0  0  0  0
  9 30  1  0  0  0  0
 10 11  1  0  0  0  0
 10 31  1  0  0  0  0
 11 12  2  0  0  0  0
 11 32  1  0  0  0  0
 12 13  1  0  0  0  0
 12 33  1  0  0  0  0
 14 15  1  0  0  0  0
 14 25  1  0  0  0  0
 15 16  1  0  0  0  0
 15 34  1  0  0  0  0
 15 35  1  0  0  0  0
 16 17  1  0  0  0  0
 16 36  1  0  0  0  0
 16 37  1  0  0  0  0
 17 18  1  0  0  0  0
 17 38  1  0  0  0  0
 17 39  1  0  0  0  0
 18 19  1  0  0  0  0
 18 40  1  0  0  0  0
 18 41  1  0  0  0  0
 19 20  1  0  0  0  0
 19 24  2  0  0  0  0
 20 21  2  0  0  0  0
 20 42  1  0  0  0  0
 21 22  1  0  0  0  0
 21 43  1  0  0  0  0
 22 23  2  0  0  0  0
 22 44  1  0  0  0  0
 23 24  1  0  0  0  0
 23 45  1  0  0  0  0
 24 25  1  0  0  0  0
 25 46  1  0  0  0  0
 25 47  1  0  0  0  0
M  END
$$$$
