
 OpenBabel07202414173D

 58 63  0  0  1  0  0  0  0  0999 V2000
    0.8852    0.4062    0.0550 Cl  0  0  0  0  0  0  0  0  0  0  0  0
    2.5982    0.2829    0.1144 C   0  0  0  0  0  0  0  0  0  0  0  0
    3.3741    1.4337    0.1355 C   0  0  0  0  0  0  0  0  0  0  0  0
    4.7596    1.3217    0.1776 C   0  0  0  0  0  0  0  0  0  0  0  0
    5.3802    0.0580    0.2151 C   0  0  0  0  0  0  0  0  0  0  0  0
    4.5980   -1.1210    0.1977 C   0  0  0  0  0  0  0  0  0  0  0  0
    3.2001   -0.9767    0.1390 C   0  0  0  0  0  0  0  0  0  0  0  0
    5.2636   -2.5155    0.2406 C   0  0  3  0  0  0  0  0  0  0  0  0
    6.7887   -2.4197    0.0941 C   0  0  0  0  0  0  0  0  0  0  0  0
    7.4120   -1.2525    0.7578 N   0  0  0  0  0  0  0  0  0  0  0  0
    7.7682   -1.2252    2.4098 S   0  0  0  0  0  0  0  0  0  0  0  0
    8.6174   -0.0737    2.6382 O   0  0  0  0  0  0  0  0  0  0  0  0
    6.5360   -1.3166    3.1320 O   0  0  0  0  0  0  0  0  0  0  0  0
    8.7686   -2.7159    2.6419 C   0  0  0  0  0  0  0  0  0  0  0  0
   10.1296   -2.4292    2.0272 C   0  0  0  0  0  0  0  0  0  0  0  0
   10.1709   -2.2744    0.5854 C   0  0  0  0  0  0  0  0  0  0  0  0
   10.2132   -2.1926   -0.5698 N   0  0  0  0  0  0  0  0  0  0  0  0
   11.1533   -1.6705    2.8561 C   0  0  0  0  0  0  0  0  0  0  0  0
   11.3387   -3.1380    2.6252 C   0  0  0  0  0  0  0  0  0  0  0  0
    6.8884    0.0164    0.2245 C   0  0  0  0  0  0  0  0  0  0  0  0
    4.7081   -3.4332   -0.8890 C   0  0  0  0  0  0  0  0  0  0  0  0
    3.7185   -4.3821   -0.2191 C   0  0  0  0  0  0  0  0  0  0  0  0
    3.6311   -3.9452    1.1448 N   0  0  0  0  0  0  0  0  0  0  0  0
    2.6878   -4.4768    2.0695 C   0  0  0  0  0  0  0  0  0  0  0  0
    2.1561   -5.7457    1.8297 C   0  0  0  0  0  0  0  0  0  0  0  0
    1.1109   -6.2921    2.4839 N   0  0  0  0  0  0  0  0  0  0  0  0
    0.5835   -5.5450    3.4723 C   0  0  0  0  0  0  0  0  0  0  0  0
    1.0662   -4.3027    3.8771 C   0  0  0  0  0  0  0  0  0  0  0  0
    0.4787   -3.6472    4.9776 C   0  0  0  0  0  0  0  0  0  0  0  0
    0.9040   -2.3817    5.3635 C   0  0  0  0  0  0  0  0  0  0  0  0
    1.8925   -1.7464    4.6256 C   0  0  0  0  0  0  0  0  0  0  0  0
    2.4939   -2.3963    3.5319 C   0  0  0  0  0  0  0  0  0  0  0  0
    2.1350   -3.7189    3.1479 C   0  0  0  0  0  0  0  0  0  0  0  0
    4.8441   -3.3404    1.4709 C   0  0  0  0  0  0  0  0  0  0  0  0
    5.5105   -3.5946    2.4609 O   0  0  0  0  0  0  0  0  0  0  0  0
    2.9100    2.4153    0.1194 H   0  0  0  0  0  0  0  0  0  0  0  0
    5.3632    2.2287    0.1915 H   0  0  0  0  0  0  0  0  0  0  0  0
    2.5447   -1.8438    0.1185 H   0  0  0  0  0  0  0  0  0  0  0  0
    7.0309   -2.3024   -0.9738 H   0  0  0  0  0  0  0  0  0  0  0  0
    7.2862   -3.3510    0.3767 H   0  0  0  0  0  0  0  0  0  0  0  0
    8.2789   -3.5813    2.2025 H   0  0  0  0  0  0  0  0  0  0  0  0
    8.8370   -2.8791    3.7212 H   0  0  0  0  0  0  0  0  0  0  0  0
   10.8740   -1.3401    3.8512 H   0  0  0  0  0  0  0  0  0  0  0  0
   11.8054   -0.9692    2.3445 H   0  0  0  0  0  0  0  0  0  0  0  0
   11.1941   -3.8050    3.4667 H   0  0  0  0  0  0  0  0  0  0  0  0
   12.1496   -3.4378    1.9686 H   0  0  0  0  0  0  0  0  0  0  0  0
    7.2535    0.1352   -0.8033 H   0  0  0  0  0  0  0  0  0  0  0  0
    7.2871    0.8704    0.7833 H   0  0  0  0  0  0  0  0  0  0  0  0
    5.4987   -4.0299   -1.3620 H   0  0  0  0  0  0  0  0  0  0  0  0
    4.2265   -2.8703   -1.6964 H   0  0  0  0  0  0  0  0  0  0  0  0
    4.1341   -5.3984   -0.2346 H   0  0  0  0  0  0  0  0  0  0  0  0
    2.7390   -4.3763   -0.7048 H   0  0  0  0  0  0  0  0  0  0  0  0
    2.5816   -6.4056    1.0815 H   0  0  0  0  0  0  0  0  0  0  0  0
   -0.2899   -5.9887    3.9444 H   0  0  0  0  0  0  0  0  0  0  0  0
   -0.3118   -4.1305    5.5498 H   0  0  0  0  0  0  0  0  0  0  0  0
    0.4611   -1.8959    6.2255 H   0  0  0  0  0  0  0  0  0  0  0  0
    2.2081   -0.7387    4.8974 H   0  0  0  0  0  0  0  0  0  0  0  0
    3.2700   -1.8512    3.0048 H   0  0  0  0  0  0  0  0  0  0  0  0
  1  2  1  0  0  0  0
  2  3  1  0  0  0  0
  2  7  2  0  0  0  0
  3  4  2  0  0  0  0
  3 36  1  0  0  0  0
  4  5  1  0  0  0  0
  4 37  1  0  0  0  0
  5  6  2  0  0  0  0
  5 20  1  0  0  0  0
  6  7  1  0  0  0  0
  6  8  1  0  0  0  0
  7 38  1  0  0  0  0
  8  9  1  0  0  0  0
  8 21  1  0  0  0  0
  8 34  1  0  0  0  0
  9 10  1  0  0  0  0
  9 39  1  0  0  0  0
  9 40  1  0  0  0  0
 10 11  1  0  0  0  0
 10 20  1  0  0  0  0
 11 12  2  0  0  0  0
 11 13  2  0  0  0  0
 11 14  1  0  0  0  0
 14 15  1  0  0  0  0
 14 41  1  0  0  0  0
 14 42  1  0  0  0  0
 15 16  1  0  0  0  0
 15 18  1  0  0  0  0
 15 19  1  0  0  0  0
 16 17  3  0  0  0  0
 18 19  1  0  0  0  0
 18 43  1  0  0  0  0
 18 44  1  0  0  0  0
 19 45  1  0  0  0  0
 19 46  1  0  0  0  0
 20 47  1  0  0  0  0
 20 48  1  0  0  0  0
 21 22  1  0  0  0  0
 21 49  1  0  0  0  0
 21 50  1  0  0  0  0
 22 23  1  0  0  0  0
 22 51  1  0  0  0  0
 22 52  1  0  0  0  0
 23 24  1  0  0  0  0
 23 34  1  0  0  0  0
 24 25  1  0  0  0  0
 24 33  2  0  0  0  0
 25 26  2  0  0  0  0
 25 53  1  0  0  0  0
 26 27  1  0  0  0  0
 27 28  2  0  0  0  0
 27 54  1  0  0  0  0
 28 29  1  0  0  0  0
 28 33  1  0  0  0  0
 29 30  2  0  0  0  0
 29 55  1  0  0  0  0
 30 31  1  0  0  0  0
 30 56  1  0  0  0  0
 31 32  2  0  0  0  0
 31 57  1  0  0  0  0
 32 33  1  0  0  0  0
 32 58  1  0  0  0  0
 34 35  2  0  0  0  0
M  END
$$$$
