
 OpenBabel07202414193D

 42 45  0  0  0  0  0  0  0  0999 V2000
    1.0613   -0.2278   -0.2319 O   0  0  0  0  0  0  0  0  0  0  0  0
    2.2738   -0.0398   -0.1357 C   0  0  0  0  0  0  0  0  0  0  0  0
    2.8798    1.3520   -0.3028 C   0  0  0  0  0  0  0  0  0  0  0  0
    2.0829    2.2941   -1.1716 C   0  0  0  0  0  0  0  0  0  0  0  0
    1.2583    3.2358   -0.5589 C   0  0  0  0  0  0  0  0  0  0  0  0
    0.5788    4.1993   -1.2140 N   0  0  0  0  0  0  0  0  0  0  0  0
    0.7101    4.2097   -2.5575 C   0  0  0  0  0  0  0  0  0  0  0  0
    1.4731    3.3015   -3.2950 C   0  0  0  0  0  0  0  0  0  0  0  0
    1.5572    3.3744   -4.6953 C   0  0  0  0  0  0  0  0  0  0  0  0
    2.3158    2.4543   -5.4138 C   0  0  0  0  0  0  0  0  0  0  0  0
    2.9966    1.4490   -4.7390 C   0  0  0  0  0  0  0  0  0  0  0  0
    2.9283    1.3717   -3.3449 C   0  0  0  0  0  0  0  0  0  0  0  0
    2.1714    2.2985   -2.5878 C   0  0  0  0  0  0  0  0  0  0  0  0
    3.1710   -1.0755    0.1683 N   0  0  0  0  0  0  0  0  0  0  0  0
    2.6371   -2.4334    0.2761 C   0  0  0  0  0  0  0  0  0  0  0  0
    2.4034   -2.8509    1.7206 C   0  0  0  0  0  0  0  0  0  0  0  0
    3.6627   -3.1247    2.5478 C   0  0  0  0  0  0  0  0  0  0  0  0
    4.9494   -2.9618    1.8988 N   0  0  0  0  0  0  0  0  0  0  0  0
    6.0183   -3.8013    2.1024 C   0  0  0  0  0  0  0  0  0  0  0  0
    7.0969   -3.3075    1.4062 C   0  0  0  0  0  0  0  0  0  0  0  0
    6.6641   -2.1382    0.7479 C   0  0  0  0  0  0  0  0  0  0  0  0
    5.3350   -1.9291    1.0769 C   0  0  0  0  0  0  0  0  0  0  0  0
    4.4835   -0.7655    0.7259 C   0  0  0  0  0  0  0  0  0  0  0  0
    3.8796    1.2963   -0.7399 H   0  0  0  0  0  0  0  0  0  0  0  0
    3.0086    1.7819    0.6985 H   0  0  0  0  0  0  0  0  0  0  0  0
    1.1340    3.2585    0.5216 H   0  0  0  0  0  0  0  0  0  0  0  0
    0.1571    5.0046   -3.0504 H   0  0  0  0  0  0  0  0  0  0  0  0
    1.0239    4.1543   -5.2376 H   0  0  0  0  0  0  0  0  0  0  0  0
    2.3700    2.5183   -6.4972 H   0  0  0  0  0  0  0  0  0  0  0  0
    3.5820    0.7208   -5.2951 H   0  0  0  0  0  0  0  0  0  0  0  0
    3.4663    0.5612   -2.8603 H   0  0  0  0  0  0  0  0  0  0  0  0
    3.3042   -3.1249   -0.2509 H   0  0  0  0  0  0  0  0  0  0  0  0
    1.6801   -2.4892   -0.2572 H   0  0  0  0  0  0  0  0  0  0  0  0
    1.7872   -3.7591    1.7264 H   0  0  0  0  0  0  0  0  0  0  0  0
    1.8046   -2.0885    2.2361 H   0  0  0  0  0  0  0  0  0  0  0  0
    3.6163   -4.1583    2.9154 H   0  0  0  0  0  0  0  0  0  0  0  0
    3.6817   -2.4780    3.4327 H   0  0  0  0  0  0  0  0  0  0  0  0
    5.9367   -4.6690    2.7435 H   0  0  0  0  0  0  0  0  0  0  0  0
    8.0923   -3.7321    1.3905 H   0  0  0  0  0  0  0  0  0  0  0  0
    7.2697   -1.4853    0.1309 H   0  0  0  0  0  0  0  0  0  0  0  0
    5.0276   -0.1667   -0.0112 H   0  0  0  0  0  0  0  0  0  0  0  0
    4.3337   -0.1388    1.6127 H   0  0  0  0  0  0  0  0  0  0  0  0
  1  2  2  0  0  0  0
  2  3  1  0  0  0  0
  2 14  1  0  0  0  0
  3  4  1  0  0  0  0
  3 24  1  0  0  0  0
  3 25  1  0  0  0  0
  4  5  1  0  0  0  0
  4 13  2  0  0  0  0
  5  6  2  0  0  0  0
  5 26  1  0  0  0  0
  6  7  1  0  0  0  0
  7  8  2  0  0  0  0
  7 27  1  0  0  0  0
  8  9  1  0  0  0  0
  8 13  1  0  0  0  0
  9 10  2  0  0  0  0
  9 28  1  0  0  0  0
 10 11  1  0  0  0  0
 10 29  1  0  0  0  0
 11 12  2  0  0  0  0
 11 30  1  0  0  0  0
 12 13  1  0  0  0  0
 12 31  1  0  0  0  0
 14 15  1  0  0  0  0
 14 23  1  0  0  0  0
 15 16  1  0  0  0  0
 15 32  1  0  0  0  0
 15 33  1  0  0  0  0
 16 17  1  0  0  0  0
 16 34  1  0  0  0  0
 16 35  1  0  0  0  0
 17 18  1  0  0  0  0
 17 36  1  0  0  0  0
 17 37  1  0  0  0  0
 18 19  1  0  0  0  0
 18 22  1  0  0  0  0
 19 20  2  0  0  0  0
 19 38  1  0  0  0  0
 20 21  1  0  0  0  0
 20 39  1  0  0  0  0
 21 22  2  0  0  0  0
 21 40  1  0  0  0  0
 22 23  1  0  0  0  0
 23 41  1  0  0  0  0
 23 42  1  0  0  0  0
M  END
$$$$
