
 OpenBabel07202414193D

 44 47  0  0  1  0  0  0  0  0999 V2000
    1.2676   -0.4399   -0.6597 O   0  0  0  0  0  0  0  0  0  0  0  0
    2.3408   -0.2140   -0.0964 C   0  0  0  0  0  0  0  0  0  0  0  0
    2.9732    1.1709   -0.1620 C   0  0  0  0  0  0  0  0  0  0  0  0
    2.3592    2.2576    0.6959 C   0  0  0  0  0  0  0  0  0  0  0  0
    0.9957    2.2483    0.9975 C   0  0  0  0  0  0  0  0  0  0  0  0
    0.3588    3.1946    1.7165 N   0  0  0  0  0  0  0  0  0  0  0  0
    1.1049    4.2346    2.1468 C   0  0  0  0  0  0  0  0  0  0  0  0
    2.4656    4.3859    1.8900 C   0  0  0  0  0  0  0  0  0  0  0  0
    3.1688    5.5128    2.3568 C   0  0  0  0  0  0  0  0  0  0  0  0
    4.5233    5.6708    2.0773 C   0  0  0  0  0  0  0  0  0  0  0  0
    5.1834    4.7109    1.3244 C   0  0  0  0  0  0  0  0  0  0  0  0
    4.4921    3.5866    0.8591 C   0  0  0  0  0  0  0  0  0  0  0  0
    3.1168    3.3837    1.1369 C   0  0  0  0  0  0  0  0  0  0  0  0
    3.0345   -1.2079    0.5656 N   0  0  0  0  0  0  0  0  0  0  0  0
    2.5816   -2.5890    0.5469 C   0  0  0  0  0  0  0  0  0  0  0  0
    3.0777   -3.1707    1.8600 C   0  0  0  0  0  0  0  0  0  0  0  0
    4.3804   -2.4105    2.1393 C   0  0  1  0  0  0  0  0  0  0  0  0
    5.6093   -3.1502    1.6379 C   0  0  0  0  0  0  0  0  0  0  0  0
    6.1235   -2.9986    0.3432 C   0  0  0  0  0  0  0  0  0  0  0  0
    7.2852   -3.6714   -0.0472 C   0  0  0  0  0  0  0  0  0  0  0  0
    7.9380   -4.5203    0.8442 C   0  0  0  0  0  0  0  0  0  0  0  0
    7.4239   -4.7069    2.1239 C   0  0  0  0  0  0  0  0  0  0  0  0
    6.2672   -4.0290    2.5157 C   0  0  0  0  0  0  0  0  0  0  0  0
    4.1191   -1.0235    1.5238 C   0  0  0  0  0  0  0  0  0  0  0  0
    2.9185    1.4920   -1.2102 H   0  0  0  0  0  0  0  0  0  0  0  0
    4.0364    1.0657    0.0592 H   0  0  0  0  0  0  0  0  0  0  0  0
    0.3348    1.4569    0.6457 H   0  0  0  0  0  0  0  0  0  0  0  0
    0.5510    4.9774    2.7135 H   0  0  0  0  0  0  0  0  0  0  0  0
    2.6596    6.2794    2.9376 H   0  0  0  0  0  0  0  0  0  0  0  0
    5.0581    6.5456    2.4388 H   0  0  0  0  0  0  0  0  0  0  0  0
    6.2385    4.8325    1.0910 H   0  0  0  0  0  0  0  0  0  0  0  0
    5.0559    2.8769    0.2610 H   0  0  0  0  0  0  0  0  0  0  0  0
    3.0587   -3.0817   -0.3086 H   0  0  0  0  0  0  0  0  0  0  0  0
    1.4968   -2.6674    0.4324 H   0  0  0  0  0  0  0  0  0  0  0  0
    3.1832   -4.2592    1.8225 H   0  0  0  0  0  0  0  0  0  0  0  0
    2.3495   -2.9309    2.6464 H   0  0  0  0  0  0  0  0  0  0  0  0
    4.5079   -2.2769    3.2226 H   0  0  0  0  0  0  0  0  0  0  0  0
    5.6357   -2.3541   -0.3839 H   0  0  0  0  0  0  0  0  0  0  0  0
    7.6829   -3.5321   -1.0484 H   0  0  0  0  0  0  0  0  0  0  0  0
    8.8441   -5.0390    0.5406 H   0  0  0  0  0  0  0  0  0  0  0  0
    7.9244   -5.3751    2.8191 H   0  0  0  0  0  0  0  0  0  0  0  0
    5.8868   -4.1883    3.5229 H   0  0  0  0  0  0  0  0  0  0  0  0
    4.9951   -0.5841    1.0390 H   0  0  0  0  0  0  0  0  0  0  0  0
    3.7607   -0.3223    2.2855 H   0  0  0  0  0  0  0  0  0  0  0  0
  1  2  2  0  0  0  0
  2  3  1  0  0  0  0
  2 14  1  0  0  0  0
  3  4  1  0  0  0  0
  3 25  1  0  0  0  0
  3 26  1  0  0  0  0
  4  5  1  0  0  0  0
  4 13  2  0  0  0  0
  5  6  2  0  0  0  0
  5 27  1  0  0  0  0
  6  7  1  0  0  0  0
  7  8  2  0  0  0  0
  7 28  1  0  0  0  0
  8  9  1  0  0  0  0
  8 13  1  0  0  0  0
  9 10  2  0  0  0  0
  9 29  1  0  0  0  0
 10 11  1  0  0  0  0
 10 30  1  0  0  0  0
 11 12  2  0  0  0  0
 11 31  1  0  0  0  0
 12 13  1  0  0  0  0
 12 32  1  0  0  0  0
 14 15  1  0  0  0  0
 14 24  1  0  0  0  0
 15 16  1  0  0  0  0
 15 33  1  0  0  0  0
 15 34  1  0  0  0  0
 16 17  1  0  0  0  0
 16 35  1  0  0  0  0
 16 36  1  0  0  0  0
 17 18  1  0  0  0  0
 17 24  1  0  0  0  0
 17 37  1  1  0  0  0
 18 19  1  0  0  0  0
 18 23  2  0  0  0  0
 19 20  2  0  0  0  0
 19 38  1  0  0  0  0
 20 21  1  0  0  0  0
 20 39  1  0  0  0  0
 21 22  2  0  0  0  0
 21 40  1  0  0  0  0
 22 23  1  0  0  0  0
 22 41  1  0  0  0  0
 23 42  1  0  0  0  0
 24 43  1  0  0  0  0
 24 44  1  0  0  0  0
M  END
$$$$
