
 OpenBabel07202414183D

 33 35  0  0  0  0  0  0  0  0999 V2000
   -0.7671   -5.7691   -2.8257 Cl  0  0  0  0  0  0  0  0  0  0  0  0
    0.5979   -4.7227   -2.8729 C   0  0  0  0  0  0  0  0  0  0  0  0
    1.2336   -4.4654   -4.0829 C   0  0  0  0  0  0  0  0  0  0  0  0
    2.3235   -3.5964   -4.1167 C   0  0  0  0  0  0  0  0  0  0  0  0
    2.7823   -2.9951   -2.9400 C   0  0  0  0  0  0  0  0  0  0  0  0
    2.1683   -3.2746   -1.7107 C   0  0  0  0  0  0  0  0  0  0  0  0
    2.5921   -2.6198   -0.4185 C   0  0  0  0  0  0  0  0  0  0  0  0
    4.0510   -2.2261   -0.3244 C   0  0  0  0  0  0  0  0  0  0  0  0
    4.4116   -1.0746   -0.5602 O   0  0  0  0  0  0  0  0  0  0  0  0
    4.8895   -3.2641    0.0374 N   0  0  0  0  0  0  0  0  0  0  0  0
    6.2719   -3.0583    0.2156 C   0  0  0  0  0  0  0  0  0  0  0  0
    7.0597   -3.9203   -0.4669 N   0  0  0  0  0  0  0  0  0  0  0  0
    8.4079   -3.7485   -0.4823 N   0  0  0  0  0  0  0  0  0  0  0  0
    8.9456   -2.7295    0.2234 C   0  0  0  0  0  0  0  0  0  0  0  0
    8.1976   -1.8694    1.0196 C   0  0  0  0  0  0  0  0  0  0  0  0
    8.8041   -0.8592    1.7914 C   0  0  0  0  0  0  0  0  0  0  0  0
    8.0407   -0.0492    2.6313 C   0  0  0  0  0  0  0  0  0  0  0  0
    6.6682   -0.2451    2.7175 C   0  0  0  0  0  0  0  0  0  0  0  0
    6.0575   -1.2302    1.9392 C   0  0  0  0  0  0  0  0  0  0  0  0
    6.8004   -2.0470    1.0494 C   0  0  0  0  0  0  0  0  0  0  0  0
    1.0548   -4.1311   -1.6952 C   0  0  0  0  0  0  0  0  0  0  0  0
    0.8802   -4.9264   -5.0009 H   0  0  0  0  0  0  0  0  0  0  0  0
    2.8128   -3.3771   -5.0633 H   0  0  0  0  0  0  0  0  0  0  0  0
    3.6170   -2.2976   -3.0061 H   0  0  0  0  0  0  0  0  0  0  0  0
    2.3742   -3.2853    0.4272 H   0  0  0  0  0  0  0  0  0  0  0  0
    1.9923   -1.7134   -0.2689 H   0  0  0  0  0  0  0  0  0  0  0  0
    4.6782   -4.1573   -0.3924 H   0  0  0  0  0  0  0  0  0  0  0  0
   10.0238   -2.6431    0.1396 H   0  0  0  0  0  0  0  0  0  0  0  0
    9.8807   -0.7022    1.7495 H   0  0  0  0  0  0  0  0  0  0  0  0
    8.5177    0.7246    3.2262 H   0  0  0  0  0  0  0  0  0  0  0  0
    6.0684    0.3719    3.3810 H   0  0  0  0  0  0  0  0  0  0  0  0
    4.9840   -1.3614    2.0395 H   0  0  0  0  0  0  0  0  0  0  0  0
    0.5325   -4.3301   -0.7616 H   0  0  0  0  0  0  0  0  0  0  0  0
  1  2  1  0  0  0  0
  2  3  1  0  0  0  0
  2 21  2  0  0  0  0
  3  4  2  0  0  0  0
  3 22  1  0  0  0  0
  4  5  1  0  0  0  0
  4 23  1  0  0  0  0
  5  6  2  0  0  0  0
  5 24  1  0  0  0  0
  6  7  1  0  0  0  0
  6 21  1  0  0  0  0
  7  8  1  0  0  0  0
  7 25  1  0  0  0  0
  7 26  1  0  0  0  0
  8  9  2  0  0  0  0
  8 10  1  0  0  0  0
 10 11  1  0  0  0  0
 10 27  1  0  0  0  0
 11 12  1  0  0  0  0
 11 20  2  0  0  0  0
 12 13  2  0  0  0  0
 13 14  1  0  0  0  0
 14 15  2  0  0  0  0
 14 28  1  0  0  0  0
 15 16  1  0  0  0  0
 15 20  1  0  0  0  0
 16 17  2  0  0  0  0
 16 29  1  0  0  0  0
 17 18  1  0  0  0  0
 17 30  1  0  0  0  0
 18 19  2  0  0  0  0
 18 31  1  0  0  0  0
 19 20  1  0  0  0  0
 19 32  1  0  0  0  0
 21 33  1  0  0  0  0
M  END
$$$$
