
 OpenBabel07202414173D

 57 61  0  0  1  0  0  0  0  0999 V2000
    0.9496    0.0305   -0.0752 Cl  0  0  0  0  0  0  0  0  0  0  0  0
    2.6660    0.0071    0.0494 C   0  0  0  0  0  0  0  0  0  0  0  0
    3.3795    1.1927   -0.0972 C   0  0  0  0  0  0  0  0  0  0  0  0
    4.7666    1.1729   -0.0232 C   0  0  0  0  0  0  0  0  0  0  0  0
    5.4452   -0.0352    0.2039 C   0  0  0  0  0  0  0  0  0  0  0  0
    4.7271   -1.2345    0.3677 C   0  0  0  0  0  0  0  0  0  0  0  0
    3.3321   -1.2072    0.2814 C   0  0  0  0  0  0  0  0  0  0  0  0
    5.4677   -2.5422    0.6389 C   0  0  3  0  0  0  0  0  0  0  0  0
    5.3872   -2.9574    2.1336 C   0  0  0  0  0  0  0  0  0  0  0  0
    4.4035   -2.6626    2.8120 O   0  0  0  0  0  0  0  0  0  0  0  0
    6.4119   -3.7685    2.5895 N   0  0  0  0  0  0  0  0  0  0  0  0
    6.6021   -4.2851    3.9012 C   0  0  0  0  0  0  0  0  0  0  0  0
    5.7165   -4.0561    4.9533 C   0  0  0  0  0  0  0  0  0  0  0  0
    5.9839   -4.3414    6.2498 N   0  0  0  0  0  0  0  0  0  0  0  0
    7.1618   -4.9456    6.5047 C   0  0  0  0  0  0  0  0  0  0  0  0
    8.0567   -5.3742    5.5264 C   0  0  0  0  0  0  0  0  0  0  0  0
    9.1906   -6.1379    5.8613 C   0  0  0  0  0  0  0  0  0  0  0  0
   10.0637   -6.5886    4.8744 C   0  0  0  0  0  0  0  0  0  0  0  0
    9.8317   -6.2529    3.5485 C   0  0  0  0  0  0  0  0  0  0  0  0
    8.7152   -5.4847    3.2077 C   0  0  0  0  0  0  0  0  0  0  0  0
    7.7847   -5.0329    4.1821 C   0  0  0  0  0  0  0  0  0  0  0  0
    6.8782   -2.4457    0.0341 C   0  0  0  0  0  0  0  0  0  0  0  0
    7.6133   -1.2703    0.5950 N   0  0  0  0  0  0  0  0  0  0  0  0
    9.2730   -1.2736    0.1873 S   0  0  0  0  0  0  0  0  0  0  0  0
    9.8473   -2.4635    0.7771 O   0  0  0  0  0  0  0  0  0  0  0  0
    9.3132   -1.0694   -1.2458 O   0  0  0  0  0  0  0  0  0  0  0  0
    9.8770    0.1974    1.0569 C   0  0  0  0  0  0  0  0  0  0  0  0
   11.3035    0.4778    0.6396 C   0  0  0  0  0  0  0  0  0  0  0  0
   11.5592    0.6971   -0.8287 C   0  0  0  0  0  0  0  0  0  0  0  0
   10.7971    1.9007   -1.3589 C   0  0  0  0  0  0  0  0  0  0  0  0
   10.1649    2.8991   -1.7987 N   0  0  0  0  0  0  0  0  0  0  0  0
   12.4228   -0.1885    1.4283 C   0  0  0  0  0  0  0  0  0  0  0  0
   12.1527    1.2730    1.6235 C   0  0  0  0  0  0  0  0  0  0  0  0
    6.9431    0.0014    0.1944 C   0  0  0  0  0  0  0  0  0  0  0  0
    2.8636    2.1316   -0.2728 H   0  0  0  0  0  0  0  0  0  0  0  0
    5.3216    2.1019   -0.1525 H   0  0  0  0  0  0  0  0  0  0  0  0
    2.7529   -2.1126    0.4123 H   0  0  0  0  0  0  0  0  0  0  0  0
    4.9488   -3.3428    0.0932 H   0  0  0  0  0  0  0  0  0  0  0  0
    7.2283   -3.8526    2.0079 H   0  0  0  0  0  0  0  0  0  0  0  0
    4.7384   -3.6098    4.8099 H   0  0  0  0  0  0  0  0  0  0  0  0
    7.3694   -5.0908    7.5622 H   0  0  0  0  0  0  0  0  0  0  0  0
    9.3820   -6.4148    6.8962 H   0  0  0  0  0  0  0  0  0  0  0  0
   10.9167   -7.2079    5.1387 H   0  0  0  0  0  0  0  0  0  0  0  0
   10.5100   -6.5960    2.7707 H   0  0  0  0  0  0  0  0  0  0  0  0
    8.5754   -5.2808    2.1498 H   0  0  0  0  0  0  0  0  0  0  0  0
    6.8073   -2.3383   -1.0560 H   0  0  0  0  0  0  0  0  0  0  0  0
    7.4463   -3.3649    0.2041 H   0  0  0  0  0  0  0  0  0  0  0  0
    9.7830   -0.0032    2.1288 H   0  0  0  0  0  0  0  0  0  0  0  0
    9.2688    1.0598    0.7880 H   0  0  0  0  0  0  0  0  0  0  0  0
   11.3844   -0.1878   -1.4408 H   0  0  0  0  0  0  0  0  0  0  0  0
   12.6236    0.9224   -0.9866 H   0  0  0  0  0  0  0  0  0  0  0  0
   13.3437   -0.4618    0.9195 H   0  0  0  0  0  0  0  0  0  0  0  0
   12.1751   -0.8651    2.2400 H   0  0  0  0  0  0  0  0  0  0  0  0
   12.8908    1.9754    1.2448 H   0  0  0  0  0  0  0  0  0  0  0  0
   11.7268    1.5796    2.5730 H   0  0  0  0  0  0  0  0  0  0  0  0
    7.2572    0.2917   -0.8168 H   0  0  0  0  0  0  0  0  0  0  0  0
    7.2409    0.7781    0.9038 H   0  0  0  0  0  0  0  0  0  0  0  0
  1  2  1  0  0  0  0
  2  3  1  0  0  0  0
  2  7  2  0  0  0  0
  3  4  2  0  0  0  0
  3 35  1  0  0  0  0
  4  5  1  0  0  0  0
  4 36  1  0  0  0  0
  5  6  2  0  0  0  0
  5 34  1  0  0  0  0
  6  7  1  0  0  0  0
  6  8  1  0  0  0  0
  7 37  1  0  0  0  0
  8  9  1  0  0  0  0
  8 22  1  0  0  0  0
  8 38  1  0  0  0  0
  9 10  2  0  0  0  0
  9 11  1  0  0  0  0
 11 12  1  0  0  0  0
 11 39  1  0  0  0  0
 12 13  1  0  0  0  0
 12 21  2  0  0  0  0
 13 14  2  0  0  0  0
 13 40  1  0  0  0  0
 14 15  1  0  0  0  0
 15 16  2  0  0  0  0
 15 41  1  0  0  0  0
 16 17  1  0  0  0  0
 16 21  1  0  0  0  0
 17 18  2  0  0  0  0
 17 42  1  0  0  0  0
 18 19  1  0  0  0  0
 18 43  1  0  0  0  0
 19 20  2  0  0  0  0
 19 44  1  0  0  0  0
 20 21  1  0  0  0  0
 20 45  1  0  0  0  0
 22 23  1  0  0  0  0
 22 46  1  0  0  0  0
 22 47  1  0  0  0  0
 23 24  1  0  0  0  0
 23 34  1  0  0  0  0
 24 25  2  0  0  0  0
 24 26  2  0  0  0  0
 24 27  1  0  0  0  0
 27 28  1  0  0  0  0
 27 48  1  0  0  0  0
 27 49  1  0  0  0  0
 28 29  1  0  0  0  0
 28 32  1  0  0  0  0
 28 33  1  0  0  0  0
 29 30  1  0  0  0  0
 29 50  1  0  0  0  0
 29 51  1  0  0  0  0
 30 31  3  0  0  0  0
 32 33  1  0  0  0  0
 32 52  1  0  0  0  0
 32 53  1  0  0  0  0
 33 54  1  0  0  0  0
 33 55  1  0  0  0  0
 34 56  1  0  0  0  0
 34 57  1  0  0  0  0
M  END
$$$$
