
 OpenBabel07202414133D

 70 74  0  0  1  0  0  0  0  0999 V2000
    6.3066    1.3848   -0.2592 C   0  0  0  0  0  0  0  0  0  0  0  0
    5.2247    0.4662    0.0304 N   0  0  0  0  0  0  0  0  0  0  0  0
    4.9142    0.1341    1.4064 C   0  0  0  0  0  0  0  0  0  0  0  0
    4.7142   -1.3530    1.5688 C   0  0  0  0  0  0  0  0  0  0  0  0
    3.6965   -1.7997    0.5368 C   0  0  0  0  0  0  0  0  0  0  0  0
    4.1320   -1.4396   -0.8105 N   0  0  0  0  0  0  0  0  0  0  0  0
    4.1422   -2.4310   -1.8475 C   0  0  0  0  0  0  0  0  0  0  0  0
    5.0625   -2.3571   -2.9073 C   0  0  0  0  0  0  0  0  0  0  0  0
    5.1243   -3.3357   -3.9085 C   0  0  0  0  0  0  0  0  0  0  0  0
    4.2472   -4.4164   -3.8904 C   0  0  0  0  0  0  0  0  0  0  0  0
    4.2706   -5.3853   -4.9590 N   0  0  0  0  0  0  0  0  0  0  0  0
    2.9607   -5.7876   -5.5651 C   0  0  3  0  0  0  0  0  0  0  0  0
    2.3096   -7.0008   -4.8467 C   0  0  0  0  0  0  0  0  0  0  0  0
    1.2021   -7.4377   -5.1550 O   0  0  0  0  0  0  0  0  0  0  0  0
    3.0641   -7.5727   -3.8378 N   0  0  0  0  0  0  0  0  0  0  0  0
    2.5408   -8.5885   -2.9469 C   0  0  0  0  0  0  0  0  0  0  0  0
    3.5305   -9.7403   -2.8167 C   0  0  0  0  0  0  0  0  0  0  0  0
    2.9955  -10.8574   -1.9632 C   0  0  0  0  0  0  0  0  0  0  0  0
    2.1877  -11.8516   -2.5365 C   0  0  0  0  0  0  0  0  0  0  0  0
    1.7015  -12.9058   -1.7610 C   0  0  0  0  0  0  0  0  0  0  0  0
    2.0103  -12.9694   -0.4040 C   0  0  0  0  0  0  0  0  0  0  0  0
    2.7938  -11.9732    0.1678 C   0  0  0  0  0  0  0  0  0  0  0  0
    3.0846  -12.0318    1.4736 F   0  0  0  0  0  0  0  0  0  0  0  0
    3.2849  -10.9182   -0.5940 C   0  0  0  0  0  0  0  0  0  0  0  0
    2.0129   -4.6110   -5.7971 C   0  0  0  0  0  0  0  0  0  0  0  0
    0.9773   -4.2574   -4.9239 C   0  0  0  0  0  0  0  0  0  0  0  0
    0.2426   -3.0964   -5.1441 C   0  0  0  0  0  0  0  0  0  0  0  0
    0.5378   -2.3361   -6.2607 C   0  0  0  0  0  0  0  0  0  0  0  0
    1.4864   -2.6670   -7.1608 N   0  0  0  0  0  0  0  0  0  0  0  0
    2.2027   -3.7864   -6.9060 C   0  0  0  0  0  0  0  0  0  0  0  0
    5.5148   -6.0023   -5.2674 C   0  0  0  0  0  0  0  0  0  0  0  0
    6.5377   -5.7412   -4.6262 O   0  0  0  0  0  0  0  0  0  0  0  0
    5.5833   -7.0711   -6.2674 C   0  0  0  0  0  0  0  0  0  0  0  0
    6.5358   -8.0721   -6.2559 C   0  0  0  0  0  0  0  0  0  0  0  0
    6.3159   -8.9010   -7.3116 O   0  0  0  0  0  0  0  0  0  0  0  0
    5.2411   -8.3505   -7.9362 C   0  0  0  0  0  0  0  0  0  0  0  0
    4.7647   -7.2665   -7.3647 N   0  0  0  0  0  0  0  0  0  0  0  0
    3.3444   -4.5076   -2.8216 C   0  0  0  0  0  0  0  0  0  0  0  0
    3.2908   -3.5332   -1.8168 C   0  0  0  0  0  0  0  0  0  0  0  0
    4.6476   -0.1641   -1.0627 C   0  0  0  0  0  0  0  0  0  0  0  0
    4.7179    0.3439   -2.1824 O   0  0  0  0  0  0  0  0  0  0  0  0
    6.7669    1.7633    0.6549 H   0  0  0  0  0  0  0  0  0  0  0  0
    5.9416    2.2130   -0.8718 H   0  0  0  0  0  0  0  0  0  0  0  0
    7.0617    0.8349   -0.8351 H   0  0  0  0  0  0  0  0  0  0  0  0
    4.0022    0.6806    1.6755 H   0  0  0  0  0  0  0  0  0  0  0  0
    5.7171    0.4759    2.0669 H   0  0  0  0  0  0  0  0  0  0  0  0
    4.3732   -1.5885    2.5821 H   0  0  0  0  0  0  0  0  0  0  0  0
    5.6638   -1.8766    1.4028 H   0  0  0  0  0  0  0  0  0  0  0  0
    2.7267   -1.3188    0.7157 H   0  0  0  0  0  0  0  0  0  0  0  0
    3.5665   -2.8796    0.6507 H   0  0  0  0  0  0  0  0  0  0  0  0
    5.7765   -1.5404   -2.9735 H   0  0  0  0  0  0  0  0  0  0  0  0
    5.8494   -3.2077   -4.7083 H   0  0  0  0  0  0  0  0  0  0  0  0
    3.1403   -6.1607   -6.5694 H   0  0  0  0  0  0  0  0  0  0  0  0
    3.9173   -7.1036   -3.5574 H   0  0  0  0  0  0  0  0  0  0  0  0
    1.5637   -8.9363   -3.2974 H   0  0  0  0  0  0  0  0  0  0  0  0
    2.3852   -8.1030   -1.9759 H   0  0  0  0  0  0  0  0  0  0  0  0
    4.4784   -9.3748   -2.4002 H   0  0  0  0  0  0  0  0  0  0  0  0
    3.7810  -10.1312   -3.8114 H   0  0  0  0  0  0  0  0  0  0  0  0
    1.9388  -11.8132   -3.5960 H   0  0  0  0  0  0  0  0  0  0  0  0
    1.0874  -13.6774   -2.2181 H   0  0  0  0  0  0  0  0  0  0  0  0
    1.6473  -13.7872    0.2096 H   0  0  0  0  0  0  0  0  0  0  0  0
    3.8963  -10.1614   -0.1120 H   0  0  0  0  0  0  0  0  0  0  0  0
    0.7430   -4.8621   -4.0525 H   0  0  0  0  0  0  0  0  0  0  0  0
   -0.5329   -2.7878   -4.4525 H   0  0  0  0  0  0  0  0  0  0  0  0
    0.0042   -1.4126   -6.4647 H   0  0  0  0  0  0  0  0  0  0  0  0
    2.9664   -4.0040   -7.6494 H   0  0  0  0  0  0  0  0  0  0  0  0
    7.3631   -8.3222   -5.6067 H   0  0  0  0  0  0  0  0  0  0  0  0
    4.8894   -8.8499   -8.8277 H   0  0  0  0  0  0  0  0  0  0  0  0
    2.6589   -5.3400   -2.7217 H   0  0  0  0  0  0  0  0  0  0  0  0
    2.5507   -3.6611   -1.0324 H   0  0  0  0  0  0  0  0  0  0  0  0
  1  2  1  0  0  0  0
  1 42  1  0  0  0  0
  1 43  1  0  0  0  0
  1 44  1  0  0  0  0
  2  3  1  0  0  0  0
  2 40  1  0  0  0  0
  3  4  1  0  0  0  0
  3 45  1  0  0  0  0
  3 46  1  0  0  0  0
  4  5  1  0  0  0  0
  4 47  1  0  0  0  0
  4 48  1  0  0  0  0
  5  6  1  0  0  0  0
  5 49  1  0  0  0  0
  5 50  1  0  0  0  0
  6  7  1  0  0  0  0
  6 40  1  0  0  0  0
  7  8  1  0  0  0  0
  7 39  2  0  0  0  0
  8  9  2  0  0  0  0
  8 51  1  0  0  0  0
  9 10  1  0  0  0  0
  9 52  1  0  0  0  0
 10 11  1  0  0  0  0
 10 38  2  0  0  0  0
 11 12  1  0  0  0  0
 11 31  1  0  0  0  0
 12 13  1  0  0  0  0
 12 25  1  0  0  0  0
 12 53  1  0  0  0  0
 13 14  2  0  0  0  0
 13 15  1  0  0  0  0
 15 16  1  0  0  0  0
 15 54  1  0  0  0  0
 16 17  1  0  0  0  0
 16 55  1  0  0  0  0
 16 56  1  0  0  0  0
 17 18  1  0  0  0  0
 17 57  1  0  0  0  0
 17 58  1  0  0  0  0
 18 19  1  0  0  0  0
 18 24  2  0  0  0  0
 19 20  2  0  0  0  0
 19 59  1  0  0  0  0
 20 21  1  0  0  0  0
 20 60  1  0  0  0  0
 21 22  2  0  0  0  0
 21 61  1  0  0  0  0
 22 23  1  0  0  0  0
 22 24  1  0  0  0  0
 24 62  1  0  0  0  0
 25 26  1  0  0  0  0
 25 30  2  0  0  0  0
 26 27  2  0  0  0  0
 26 63  1  0  0  0  0
 27 28  1  0  0  0  0
 27 64  1  0  0  0  0
 28 29  2  0  0  0  0
 28 65  1  0  0  0  0
 29 30  1  0  0  0  0
 30 66  1  0  0  0  0
 31 32  2  0  0  0  0
 31 33  1  0  0  0  0
 33 34  2  0  0  0  0
 33 37  1  0  0  0  0
 34 35  1  0  0  0  0
 34 67  1  0  0  0  0
 35 36  1  0  0  0  0
 36 37  2  0  0  0  0
 36 68  1  0  0  0  0
 38 39  1  0  0  0  0
 38 69  1  0  0  0  0
 39 70  1  0  0  0  0
 40 41  2  0  0  0  0
M  END
$$$$
