
 OpenBabel07202414163D

 35 37  0  0  0  0  0  0  0  0999 V2000
    1.6468    0.0492    1.8569 C   0  0  0  0  0  0  0  0  0  0  0  0
    2.9220   -0.2426    1.1686 C   0  0  0  0  0  0  0  0  0  0  0  0
    3.3123   -1.3512    0.4342 C   0  0  0  0  0  0  0  0  0  0  0  0
    4.6230   -1.2352    0.1793 C   0  0  0  0  0  0  0  0  0  0  0  0
    4.9744   -2.3796   -0.4417 N   0  0  0  0  0  0  0  0  0  0  0  0
    3.9370   -3.2659   -0.4998 N   0  0  0  0  0  0  0  0  0  0  0  0
    2.8727   -2.5816   -0.0289 C   0  0  0  0  0  0  0  0  0  0  0  0
    1.6391   -3.1975   -0.0098 N   0  0  0  0  0  0  0  0  0  0  0  0
    0.4995   -2.5787   -0.4865 C   0  0  0  0  0  0  0  0  0  0  0  0
    0.4523   -1.4484   -0.9662 O   0  0  0  0  0  0  0  0  0  0  0  0
   -0.7523   -3.4406   -0.3647 C   0  0  0  0  0  0  0  0  0  0  0  0
   -0.9856   -4.4357   -1.4815 C   0  0  0  0  0  0  0  0  0  0  0  0
   -1.1075   -4.0216   -2.8145 C   0  0  0  0  0  0  0  0  0  0  0  0
   -1.3971   -4.9437   -3.8271 C   0  0  0  0  0  0  0  0  0  0  0  0
   -1.5745   -6.2927   -3.5272 C   0  0  0  0  0  0  0  0  0  0  0  0
   -1.4739   -6.7104   -2.2015 C   0  0  0  0  0  0  0  0  0  0  0  0
   -1.1876   -5.7970   -1.1834 C   0  0  0  0  0  0  0  0  0  0  0  0
   -1.7198   -8.3727   -1.8098 Cl  0  0  0  0  0  0  0  0  0  0  0  0
    5.0066   -0.0421    0.6818 N   0  0  0  0  0  0  0  0  0  0  0  0
    3.9762    0.5912    1.3096 N   0  0  0  0  0  0  0  0  0  0  0  0
    6.3242    0.5401    0.7144 C   0  0  0  0  0  0  0  0  0  0  0  0
    1.0855   -0.8684    2.0570 H   0  0  0  0  0  0  0  0  0  0  0  0
    1.0269    0.7188    1.2553 H   0  0  0  0  0  0  0  0  0  0  0  0
    1.8345    0.5302    2.8249 H   0  0  0  0  0  0  0  0  0  0  0  0
    5.8758   -2.6684   -0.8081 H   0  0  0  0  0  0  0  0  0  0  0  0
    1.7044   -4.1944   -0.1636 H   0  0  0  0  0  0  0  0  0  0  0  0
   -1.6199   -2.7708   -0.3080 H   0  0  0  0  0  0  0  0  0  0  0  0
   -0.7123   -3.9574    0.6026 H   0  0  0  0  0  0  0  0  0  0  0  0
   -1.0017   -2.9701   -3.0776 H   0  0  0  0  0  0  0  0  0  0  0  0
   -1.4972   -4.6072   -4.8574 H   0  0  0  0  0  0  0  0  0  0  0  0
   -1.8042   -7.0077   -4.3119 H   0  0  0  0  0  0  0  0  0  0  0  0
   -1.1444   -6.1472   -0.1543 H   0  0  0  0  0  0  0  0  0  0  0  0
    7.0268   -0.1041    0.1799 H   0  0  0  0  0  0  0  0  0  0  0  0
    6.6330    0.6384    1.7586 H   0  0  0  0  0  0  0  0  0  0  0  0
    6.2833    1.5241    0.2380 H   0  0  0  0  0  0  0  0  0  0  0  0
  1  2  1  0  0  0  0
  1 22  1  0  0  0  0
  1 23  1  0  0  0  0
  1 24  1  0  0  0  0
  2  3  1  0  0  0  0
  2 20  2  0  0  0  0
  3  4  2  0  0  0  0
  3  7  1  0  0  0  0
  4  5  1  0  0  0  0
  4 19  1  0  0  0  0
  5  6  1  0  0  0  0
  5 25  1  0  0  0  0
  6  7  2  0  0  0  0
  7  8  1  0  0  0  0
  8  9  1  0  0  0  0
  8 26  1  0  0  0  0
  9 10  2  0  0  0  0
  9 11  1  0  0  0  0
 11 12  1  0  0  0  0
 11 27  1  0  0  0  0
 11 28  1  0  0  0  0
 12 13  1  0  0  0  0
 12 17  2  0  0  0  0
 13 14  2  0  0  0  0
 13 29  1  0  0  0  0
 14 15  1  0  0  0  0
 14 30  1  0  0  0  0
 15 16  2  0  0  0  0
 15 31  1  0  0  0  0
 16 17  1  0  0  0  0
 16 18  1  0  0  0  0
 17 32  1  0  0  0  0
 19 20  1  0  0  0  0
 19 21  1  0  0  0  0
 21 33  1  0  0  0  0
 21 34  1  0  0  0  0
 21 35  1  0  0  0  0
M  END
$$$$
