
 OpenBabel07202414133D

 64 69  0  0  1  0  0  0  0  0999 V2000
    1.0349   -0.8856    1.4720 C   0  0  0  0  0  0  0  0  0  0  0  0
    1.4969   -0.8160    0.0227 C   0  0  0  0  0  0  0  0  0  0  0  0
    2.7558   -1.6583   -0.2678 C   0  0  3  0  0  0  0  0  0  0  0  0
    2.3962   -3.1303   -0.4956 C   0  0  0  0  0  0  0  0  0  0  0  0
    3.4533   -3.6398   -1.3221 N   0  0  0  0  0  0  0  0  0  0  0  0
    3.5757   -5.0194   -1.6805 C   0  0  0  0  0  0  0  0  0  0  0  0
    2.4534   -5.8454   -1.7598 C   0  0  0  0  0  0  0  0  0  0  0  0
    2.4546   -7.1062   -2.2529 N   0  0  0  0  0  0  0  0  0  0  0  0
    3.6526   -7.6044   -2.6259 C   0  0  0  0  0  0  0  0  0  0  0  0
    4.8683   -6.9527   -2.4331 C   0  0  0  0  0  0  0  0  0  0  0  0
    6.0904   -7.6144   -2.6607 C   0  0  0  0  0  0  0  0  0  0  0  0
    7.2992   -6.9895   -2.3661 C   0  0  0  0  0  0  0  0  0  0  0  0
    7.2980   -5.6854   -1.8881 C   0  0  0  0  0  0  0  0  0  0  0  0
    6.0887   -5.0065   -1.6999 C   0  0  0  0  0  0  0  0  0  0  0  0
    4.8385   -5.6200   -1.9532 C   0  0  0  0  0  0  0  0  0  0  0  0
    3.8898   -2.6194   -2.1875 C   0  0  0  0  0  0  0  0  0  0  0  0
    4.4274   -2.7706   -3.2763 O   0  0  0  0  0  0  0  0  0  0  0  0
    3.5884   -1.2502   -1.5393 C   0  0  3  0  0  0  0  0  0  0  0  0
    4.9964   -0.7150   -1.1312 C   0  0  0  0  0  0  0  0  0  0  0  0
    5.0426    0.7407   -0.8214 N   0  0  0  0  0  0  0  0  0  0  0  0
    4.7208    1.4182    0.6758 S   0  0  0  0  0  0  0  0  0  0  0  0
    4.9539    2.8450    0.5804 O   0  0  0  0  0  0  0  0  0  0  0  0
    3.4305    0.9530    1.1244 O   0  0  0  0  0  0  0  0  0  0  0  0
    5.9143    0.7305    1.8281 C   0  0  0  0  0  0  0  0  0  0  0  0
    7.2124    1.4471    1.6215 C   0  0  0  0  0  0  0  0  0  0  0  0
    7.8814    1.1433    0.3794 C   0  0  0  0  0  0  0  0  0  0  0  0
    8.4258    0.8549   -0.6085 N   0  0  0  0  0  0  0  0  0  0  0  0
    7.3956    2.8216    2.2339 C   0  0  0  0  0  0  0  0  0  0  0  0
    8.1339    1.6525    2.8147 C   0  0  0  0  0  0  0  0  0  0  0  0
    4.6237    1.5315   -1.9985 C   0  0  0  0  0  0  0  0  0  0  0  0
    3.3296    1.0575   -2.6207 C   0  0  0  0  0  0  0  0  0  0  0  0
    2.5878    1.9851   -3.3760 C   0  0  0  0  0  0  0  0  0  0  0  0
    1.3922    1.6146   -3.9839 C   0  0  0  0  0  0  0  0  0  0  0  0
    0.9521    0.3009   -3.8779 C   0  0  0  0  0  0  0  0  0  0  0  0
   -0.5439   -0.1508   -4.5996 Cl  0  0  0  0  0  0  0  0  0  0  0  0
    1.6915   -0.6447   -3.1606 C   0  0  0  0  0  0  0  0  0  0  0  0
    2.8770   -0.2781   -2.4924 C   0  0  0  0  0  0  0  0  0  0  0  0
    0.2585   -0.1308    1.6392 H   0  0  0  0  0  0  0  0  0  0  0  0
    1.8479   -0.6792    2.1750 H   0  0  0  0  0  0  0  0  0  0  0  0
    0.6188   -1.8664    1.7105 H   0  0  0  0  0  0  0  0  0  0  0  0
    1.6775    0.2362   -0.2150 H   0  0  0  0  0  0  0  0  0  0  0  0
    0.6639   -1.1244   -0.6169 H   0  0  0  0  0  0  0  0  0  0  0  0
    3.4246   -1.6239    0.6035 H   0  0  0  0  0  0  0  0  0  0  0  0
    1.4469   -3.2277   -1.0336 H   0  0  0  0  0  0  0  0  0  0  0  0
    2.3450   -3.6859    0.4468 H   0  0  0  0  0  0  0  0  0  0  0  0
    1.4681   -5.5076   -1.4579 H   0  0  0  0  0  0  0  0  0  0  0  0
    3.6099   -8.5966   -3.0706 H   0  0  0  0  0  0  0  0  0  0  0  0
    6.1062   -8.6406   -3.0238 H   0  0  0  0  0  0  0  0  0  0  0  0
    8.2371   -7.5241   -2.4949 H   0  0  0  0  0  0  0  0  0  0  0  0
    8.2379   -5.1941   -1.6489 H   0  0  0  0  0  0  0  0  0  0  0  0
    6.1334   -3.9944   -1.3092 H   0  0  0  0  0  0  0  0  0  0  0  0
    5.6903   -0.8574   -1.9770 H   0  0  0  0  0  0  0  0  0  0  0  0
    5.4456   -1.3019   -0.3234 H   0  0  0  0  0  0  0  0  0  0  0  0
    5.9666   -0.3562    1.7061 H   0  0  0  0  0  0  0  0  0  0  0  0
    5.5096    0.9333    2.8266 H   0  0  0  0  0  0  0  0  0  0  0  0
    6.5831    3.2444    2.8145 H   0  0  0  0  0  0  0  0  0  0  0  0
    7.9370    3.5656    1.6607 H   0  0  0  0  0  0  0  0  0  0  0  0
    7.8236    1.2948    3.7890 H   0  0  0  0  0  0  0  0  0  0  0  0
    9.2089    1.6289    2.6684 H   0  0  0  0  0  0  0  0  0  0  0  0
    5.4169    1.4666   -2.7544 H   0  0  0  0  0  0  0  0  0  0  0  0
    4.5409    2.5940   -1.7485 H   0  0  0  0  0  0  0  0  0  0  0  0
    2.9312    3.0145   -3.4730 H   0  0  0  0  0  0  0  0  0  0  0  0
    0.8130    2.3538   -4.5310 H   0  0  0  0  0  0  0  0  0  0  0  0
    1.3071   -1.6593   -3.0909 H   0  0  0  0  0  0  0  0  0  0  0  0
  1  2  1  0  0  0  0
  1 38  1  0  0  0  0
  1 39  1  0  0  0  0
  1 40  1  0  0  0  0
  2  3  1  0  0  0  0
  2 41  1  0  0  0  0
  2 42  1  0  0  0  0
  3  4  1  0  0  0  0
  3 18  1  0  0  0  0
  3 43  1  0  0  0  0
  4  5  1  0  0  0  0
  4 44  1  0  0  0  0
  4 45  1  0  0  0  0
  5  6  1  0  0  0  0
  5 16  1  0  0  0  0
  6  7  1  0  0  0  0
  6 15  2  0  0  0  0
  7  8  2  0  0  0  0
  7 46  1  0  0  0  0
  8  9  1  0  0  0  0
  9 10  2  0  0  0  0
  9 47  1  0  0  0  0
 10 11  1  0  0  0  0
 10 15  1  0  0  0  0
 11 12  2  0  0  0  0
 11 48  1  0  0  0  0
 12 13  1  0  0  0  0
 12 49  1  0  0  0  0
 13 14  2  0  0  0  0
 13 50  1  0  0  0  0
 14 15  1  0  0  0  0
 14 51  1  0  0  0  0
 16 17  2  0  0  0  0
 16 18  1  0  0  0  0
 18 19  1  0  0  0  0
 18 37  1  0  0  0  0
 19 20  1  0  0  0  0
 19 52  1  0  0  0  0
 19 53  1  0  0  0  0
 20 21  1  0  0  0  0
 20 30  1  0  0  0  0
 21 22  2  0  0  0  0
 21 23  2  0  0  0  0
 21 24  1  0  0  0  0
 24 25  1  0  0  0  0
 24 54  1  0  0  0  0
 24 55  1  0  0  0  0
 25 26  1  0  0  0  0
 25 28  1  0  0  0  0
 25 29  1  0  0  0  0
 26 27  3  0  0  0  0
 28 29  1  0  0  0  0
 28 56  1  0  0  0  0
 28 57  1  0  0  0  0
 29 58  1  0  0  0  0
 29 59  1  0  0  0  0
 30 31  1  0  0  0  0
 30 60  1  0  0  0  0
 30 61  1  0  0  0  0
 31 32  1  0  0  0  0
 31 37  2  0  0  0  0
 32 33  2  0  0  0  0
 32 62  1  0  0  0  0
 33 34  1  0  0  0  0
 33 63  1  0  0  0  0
 34 35  1  0  0  0  0
 34 36  2  0  0  0  0
 36 37  1  0  0  0  0
 36 64  1  0  0  0  0
M  END
$$$$
