
 OpenBabel07202414193D

 43 45  0  0  1  0  0  0  0  0999 V2000
    1.2190    0.2131    0.3366 O   0  0  0  0  0  0  0  0  0  0  0  0
    2.2286   -0.1149   -0.2810 C   0  0  0  0  0  0  0  0  0  0  0  0
    2.6063   -1.5965   -0.3970 C   0  0  0  0  0  0  0  0  0  0  0  0
    3.6492   -2.0561    0.5973 C   0  0  0  0  0  0  0  0  0  0  0  0
    3.6443   -1.5245    1.8924 C   0  0  0  0  0  0  0  0  0  0  0  0
    4.5173   -1.8568    2.8652 N   0  0  0  0  0  0  0  0  0  0  0  0
    5.4491   -2.7783    2.5488 C   0  0  0  0  0  0  0  0  0  0  0  0
    5.5620   -3.3968    1.3052 C   0  0  0  0  0  0  0  0  0  0  0  0
    6.5762   -4.3395    1.0566 C   0  0  0  0  0  0  0  0  0  0  0  0
    6.6846   -4.9546   -0.1867 C   0  0  0  0  0  0  0  0  0  0  0  0
    5.7673   -4.6494   -1.1842 C   0  0  0  0  0  0  0  0  0  0  0  0
    4.7510   -3.7166   -0.9425 C   0  0  0  0  0  0  0  0  0  0  0  0
    4.6285   -3.0465    0.2998 C   0  0  0  0  0  0  0  0  0  0  0  0
    3.0781    0.8081   -0.8872 N   0  0  0  0  0  0  0  0  0  0  0  0
    4.2718    0.4572   -1.6484 C   0  0  0  0  0  0  0  0  0  0  0  0
    5.4736    1.2518   -1.1767 C   0  0  0  0  0  0  0  0  0  0  0  0
    5.1934    2.7453   -1.2374 C   0  0  0  0  0  0  0  0  0  0  0  0
    3.9152    3.1173   -0.4588 C   0  0  1  0  0  0  0  0  0  0  0  0
    3.5660    4.6073   -0.6222 C   0  0  0  0  0  0  0  0  0  0  0  0
    4.6159    5.5727   -0.0902 C   0  0  0  0  0  0  0  0  0  0  0  0
    5.6696    4.9594    0.4813 F   0  0  0  0  0  0  0  0  0  0  0  0
    5.0877    6.3560   -1.0861 F   0  0  0  0  0  0  0  0  0  0  0  0
    4.0792    6.3910    0.8451 F   0  0  0  0  0  0  0  0  0  0  0  0
    2.7300    2.2334   -0.9033 C   0  0  0  0  0  0  0  0  0  0  0  0
    2.9081   -1.7716   -1.4329 H   0  0  0  0  0  0  0  0  0  0  0  0
    1.6970   -2.1939   -0.2668 H   0  0  0  0  0  0  0  0  0  0  0  0
    2.9121   -0.7813    2.2011 H   0  0  0  0  0  0  0  0  0  0  0  0
    6.1303   -3.0189    3.3616 H   0  0  0  0  0  0  0  0  0  0  0  0
    7.2934   -4.5959    1.8339 H   0  0  0  0  0  0  0  0  0  0  0  0
    7.4786   -5.6738   -0.3730 H   0  0  0  0  0  0  0  0  0  0  0  0
    5.8402   -5.1364   -2.1536 H   0  0  0  0  0  0  0  0  0  0  0  0
    4.0530   -3.5272   -1.7528 H   0  0  0  0  0  0  0  0  0  0  0  0
    4.0502    0.6582   -2.7004 H   0  0  0  0  0  0  0  0  0  0  0  0
    4.5299   -0.5993   -1.5704 H   0  0  0  0  0  0  0  0  0  0  0  0
    6.3423    1.0097   -1.8001 H   0  0  0  0  0  0  0  0  0  0  0  0
    5.7237    0.9682   -0.1467 H   0  0  0  0  0  0  0  0  0  0  0  0
    5.0966    3.0569   -2.2851 H   0  0  0  0  0  0  0  0  0  0  0  0
    6.0685    3.2614   -0.8344 H   0  0  0  0  0  0  0  0  0  0  0  0
    4.0921    2.9202    0.6077 H   0  0  0  0  0  0  0  0  0  0  0  0
    2.6166    4.8129   -0.1126 H   0  0  0  0  0  0  0  0  0  0  0  0
    3.3865    4.8267   -1.6848 H   0  0  0  0  0  0  0  0  0  0  0  0
    2.4421    2.4670   -1.9337 H   0  0  0  0  0  0  0  0  0  0  0  0
    1.8560    2.4287   -0.2739 H   0  0  0  0  0  0  0  0  0  0  0  0
  1  2  2  0  0  0  0
  2  3  1  0  0  0  0
  2 14  1  0  0  0  0
  3  4  1  0  0  0  0
  3 25  1  0  0  0  0
  3 26  1  0  0  0  0
  4  5  1  0  0  0  0
  4 13  2  0  0  0  0
  5  6  2  0  0  0  0
  5 27  1  0  0  0  0
  6  7  1  0  0  0  0
  7  8  2  0  0  0  0
  7 28  1  0  0  0  0
  8  9  1  0  0  0  0
  8 13  1  0  0  0  0
  9 10  2  0  0  0  0
  9 29  1  0  0  0  0
 10 11  1  0  0  0  0
 10 30  1  0  0  0  0
 11 12  2  0  0  0  0
 11 31  1  0  0  0  0
 12 13  1  0  0  0  0
 12 32  1  0  0  0  0
 14 15  1  0  0  0  0
 14 24  1  0  0  0  0
 15 16  1  0  0  0  0
 15 33  1  0  0  0  0
 15 34  1  0  0  0  0
 16 17  1  0  0  0  0
 16 35  1  0  0  0  0
 16 36  1  0  0  0  0
 17 18  1  0  0  0  0
 17 37  1  0  0  0  0
 17 38  1  0  0  0  0
 18 19  1  0  0  0  0
 18 24  1  0  0  0  0
 18 39  1  1  0  0  0
 19 20  1  0  0  0  0
 19 40  1  0  0  0  0
 19 41  1  0  0  0  0
 20 21  1  0  0  0  0
 20 22  1  0  0  0  0
 20 23  1  0  0  0  0
 24 42  1  0  0  0  0
 24 43  1  0  0  0  0
M  END
$$$$
