
 OpenBabel07202414193D

 50 53  0  0  0  0  0  0  0  0999 V2000
    1.1617    0.4411    0.2341 O   0  0  0  0  0  0  0  0  0  0  0  0
    2.2515    0.0189   -0.1549 C   0  0  0  0  0  0  0  0  0  0  0  0
    2.7557   -1.3308    0.3503 C   0  0  0  0  0  0  0  0  0  0  0  0
    3.7791   -1.2152    1.4614 C   0  0  0  0  0  0  0  0  0  0  0  0
    3.6140   -0.2194    2.4333 C   0  0  0  0  0  0  0  0  0  0  0  0
    4.4500   -0.0092    3.4684 N   0  0  0  0  0  0  0  0  0  0  0  0
    5.5051   -0.8423    3.5677 C   0  0  0  0  0  0  0  0  0  0  0  0
    5.7747   -1.8896    2.6893 C   0  0  0  0  0  0  0  0  0  0  0  0
    6.8939   -2.7192    2.8724 C   0  0  0  0  0  0  0  0  0  0  0  0
    7.1508   -3.7696    1.9959 C   0  0  0  0  0  0  0  0  0  0  0  0
    6.2854   -4.0046    0.9357 C   0  0  0  0  0  0  0  0  0  0  0  0
    5.1666   -3.1859    0.7464 C   0  0  0  0  0  0  0  0  0  0  0  0
    4.8827   -2.0993    1.6094 C   0  0  0  0  0  0  0  0  0  0  0  0
    3.0742    0.7521   -1.0014 N   0  0  0  0  0  0  0  0  0  0  0  0
    4.3264    0.2696   -1.5845 C   0  0  0  0  0  0  0  0  0  0  0  0
    5.4469    1.2692   -1.3325 C   0  0  0  0  0  0  0  0  0  0  0  0
    5.1061    2.6528   -1.9065 C   0  0  0  0  0  0  0  0  0  0  0  0
    5.0324    2.6985   -3.4474 C   0  0  0  0  0  0  0  0  0  0  0  0
    6.3033    2.2014   -4.1350 C   0  0  0  0  0  0  0  0  0  0  0  0
    7.6011    3.0296   -3.9776 C   0  0  0  0  0  0  0  0  0  0  0  0
    7.8345    2.8889   -5.4916 C   0  0  0  0  0  0  0  0  0  0  0  0
    6.3549    2.5120   -5.6512 C   0  0  0  0  0  0  0  0  0  0  0  0
    3.7707    3.1148   -1.2829 C   0  0  0  0  0  0  0  0  0  0  0  0
    2.6465    2.0825   -1.4396 C   0  0  0  0  0  0  0  0  0  0  0  0
    3.1150   -1.8978   -0.5114 H   0  0  0  0  0  0  0  0  0  0  0  0
    1.8955   -1.8965    0.7288 H   0  0  0  0  0  0  0  0  0  0  0  0
    2.7725    0.4694    2.4049 H   0  0  0  0  0  0  0  0  0  0  0  0
    6.1531   -0.6380    4.4161 H   0  0  0  0  0  0  0  0  0  0  0  0
    7.5732   -2.5515    3.7054 H   0  0  0  0  0  0  0  0  0  0  0  0
    8.0200   -4.4058    2.1454 H   0  0  0  0  0  0  0  0  0  0  0  0
    6.4756   -4.8296    0.2528 H   0  0  0  0  0  0  0  0  0  0  0  0
    4.5163   -3.4226   -0.0917 H   0  0  0  0  0  0  0  0  0  0  0  0
    4.1541    0.1219   -2.6563 H   0  0  0  0  0  0  0  0  0  0  0  0
    4.6267   -0.6966   -1.1842 H   0  0  0  0  0  0  0  0  0  0  0  0
    6.3918    0.8915   -1.7331 H   0  0  0  0  0  0  0  0  0  0  0  0
    5.5926    1.3662   -0.2473 H   0  0  0  0  0  0  0  0  0  0  0  0
    5.8908    3.3503   -1.5861 H   0  0  0  0  0  0  0  0  0  0  0  0
    4.8315    3.7353   -3.7483 H   0  0  0  0  0  0  0  0  0  0  0  0
    4.1864    2.1083   -3.8162 H   0  0  0  0  0  0  0  0  0  0  0  0
    6.4746    1.1308   -3.9570 H   0  0  0  0  0  0  0  0  0  0  0  0
    8.3713    2.5665   -3.3529 H   0  0  0  0  0  0  0  0  0  0  0  0
    7.4507    4.0627   -3.6495 H   0  0  0  0  0  0  0  0  0  0  0  0
    8.5266    2.0848   -5.7642 H   0  0  0  0  0  0  0  0  0  0  0  0
    8.1364    3.8073   -6.0030 H   0  0  0  0  0  0  0  0  0  0  0  0
    6.1626    1.6562   -6.3058 H   0  0  0  0  0  0  0  0  0  0  0  0
    5.7245    3.3484   -5.9735 H   0  0  0  0  0  0  0  0  0  0  0  0
    3.4570    4.0747   -1.7105 H   0  0  0  0  0  0  0  0  0  0  0  0
    3.9315    3.2882   -0.2099 H   0  0  0  0  0  0  0  0  0  0  0  0
    2.3364    1.9994   -2.4875 H   0  0  0  0  0  0  0  0  0  0  0  0
    1.7703    2.4195   -0.8760 H   0  0  0  0  0  0  0  0  0  0  0  0
  1  2  2  0  0  0  0
  2  3  1  0  0  0  0
  2 14  1  0  0  0  0
  3  4  1  0  0  0  0
  3 25  1  0  0  0  0
  3 26  1  0  0  0  0
  4  5  1  0  0  0  0
  4 13  2  0  0  0  0
  5  6  2  0  0  0  0
  5 27  1  0  0  0  0
  6  7  1  0  0  0  0
  7  8  2  0  0  0  0
  7 28  1  0  0  0  0
  8  9  1  0  0  0  0
  8 13  1  0  0  0  0
  9 10  2  0  0  0  0
  9 29  1  0  0  0  0
 10 11  1  0  0  0  0
 10 30  1  0  0  0  0
 11 12  2  0  0  0  0
 11 31  1  0  0  0  0
 12 13  1  0  0  0  0
 12 32  1  0  0  0  0
 14 15  1  0  0  0  0
 14 24  1  0  0  0  0
 15 16  1  0  0  0  0
 15 33  1  0  0  0  0
 15 34  1  0  0  0  0
 16 17  1  0  0  0  0
 16 35  1  0  0  0  0
 16 36  1  0  0  0  0
 17 18  1  0  0  0  0
 17 23  1  0  0  0  0
 17 37  1  0  0  0  0
 18 19  1  0  0  0  0
 18 38  1  0  0  0  0
 18 39  1  0  0  0  0
 19 20  1  0  0  0  0
 19 22  1  0  0  0  0
 19 40  1  0  0  0  0
 20 21  1  0  0  0  0
 20 41  1  0  0  0  0
 20 42  1  0  0  0  0
 21 22  1  0  0  0  0
 21 43  1  0  0  0  0
 21 44  1  0  0  0  0
 22 45  1  0  0  0  0
 22 46  1  0  0  0  0
 23 24  1  0  0  0  0
 23 47  1  0  0  0  0
 23 48  1  0  0  0  0
 24 49  1  0  0  0  0
 24 50  1  0  0  0  0
M  END
$$$$
