
 OpenBabel07202414133D

 63 66  0  0  1  0  0  0  0  0999 V2000
    3.5325    3.2490    4.6228 C   0  0  0  0  0  0  0  0  0  0  0  0
    2.4560    2.2855    4.1478 C   0  0  0  0  0  0  0  0  0  0  0  0
    2.9829    1.3858    3.1364 N   0  0  0  0  0  0  0  0  0  0  0  0
    3.6736    0.2360    3.4583 C   0  0  0  0  0  0  0  0  0  0  0  0
    3.9388   -0.3930    4.6855 C   0  0  0  0  0  0  0  0  0  0  0  0
    4.7106   -1.5488    4.6563 C   0  0  0  0  0  0  0  0  0  0  0  0
    5.1853   -2.0455    3.4422 C   0  0  0  0  0  0  0  0  0  0  0  0
    4.9634   -1.3755    2.2254 C   0  0  0  0  0  0  0  0  0  0  0  0
    4.1681   -0.2181    2.2456 C   0  0  0  0  0  0  0  0  0  0  0  0
    3.7728    0.6095    1.2198 N   0  0  0  0  0  0  0  0  0  0  0  0
    3.0487    1.5775    1.7680 C   0  0  0  0  0  0  0  0  0  0  0  0
    2.5207    2.8013    1.0609 C   0  0  0  0  0  0  0  0  0  0  0  0
    1.6481    2.4719   -0.5104 S   0  0  0  0  0  0  0  0  0  0  0  0
    0.1060    1.8947    0.0314 C   0  0  0  0  0  0  0  0  0  0  0  0
   -0.3598    2.0924    1.2443 N   0  0  0  0  0  0  0  0  0  0  0  0
   -1.4657    1.2888    1.3458 C   0  0  0  0  0  0  0  0  0  0  0  0
   -1.6971    0.6228    0.1560 C   0  0  0  0  0  0  0  0  0  0  0  0
   -0.7441    1.1115   -0.7286 N   0  0  0  0  0  0  0  0  0  0  0  0
   -0.5531    0.6253   -2.0903 C   0  0  0  0  0  0  0  0  0  0  0  0
   -1.4373    1.2152   -3.2129 C   0  0  3  0  0  0  0  0  0  0  0  0
   -1.1863    2.6734   -3.5608 C   0  0  0  0  0  0  0  0  0  0  0  0
   -2.5630    3.2444   -3.8085 C   0  0  0  0  0  0  0  0  0  0  0  0
   -3.4746    2.3361   -3.0230 C   0  0  0  0  0  0  0  0  0  0  0  0
   -2.8422    1.0544   -2.9652 O   0  0  0  0  0  0  0  0  0  0  0  0
   -2.6693   -0.4558   -0.1540 C   0  0  0  0  0  0  0  0  0  0  0  0
   -2.1739    1.1322    2.6372 C   0  0  0  0  0  0  0  0  0  0  0  0
    6.0929   -3.5805    3.4516 S   0  0  0  0  0  0  0  0  0  0  0  0
    6.9255   -3.5967    2.2731 O   0  0  0  0  0  0  0  0  0  0  0  0
    6.6637   -3.7482    4.7760 O   0  0  0  0  0  0  0  0  0  0  0  0
    4.8539   -4.7378    3.2527 N   0  0  0  0  0  0  0  0  0  0  0  0
    4.0069   -5.0261    4.4230 C   0  0  0  0  0  0  0  0  0  0  0  0
    4.0870   -4.6486    1.9952 C   0  0  0  0  0  0  0  0  0  0  0  0
    3.1851    3.8155    5.4936 H   0  0  0  0  0  0  0  0  0  0  0  0
    3.8009    3.9522    3.8344 H   0  0  0  0  0  0  0  0  0  0  0  0
    4.4487    2.7159    4.9139 H   0  0  0  0  0  0  0  0  0  0  0  0
    1.5793    2.8037    3.7541 H   0  0  0  0  0  0  0  0  0  0  0  0
    2.1048    1.6732    4.9870 H   0  0  0  0  0  0  0  0  0  0  0  0
    3.5637   -0.0020    5.6265 H   0  0  0  0  0  0  0  0  0  0  0  0
    4.9302   -2.0642    5.5912 H   0  0  0  0  0  0  0  0  0  0  0  0
    5.3700   -1.7383    1.2869 H   0  0  0  0  0  0  0  0  0  0  0  0
    3.3912    3.4176    0.8036 H   0  0  0  0  0  0  0  0  0  0  0  0
    1.8966    3.4271    1.7051 H   0  0  0  0  0  0  0  0  0  0  0  0
   -0.7366   -0.4548   -2.0452 H   0  0  0  0  0  0  0  0  0  0  0  0
    0.4999    0.7411   -2.3605 H   0  0  0  0  0  0  0  0  0  0  0  0
   -1.2380    0.6156   -4.1111 H   0  0  0  0  0  0  0  0  0  0  0  0
   -0.5534    2.7633   -4.4515 H   0  0  0  0  0  0  0  0  0  0  0  0
   -0.6851    3.2090   -2.7520 H   0  0  0  0  0  0  0  0  0  0  0  0
   -2.8082    3.1920   -4.8780 H   0  0  0  0  0  0  0  0  0  0  0  0
   -2.6504    4.2901   -3.5018 H   0  0  0  0  0  0  0  0  0  0  0  0
   -4.4655    2.2378   -3.4828 H   0  0  0  0  0  0  0  0  0  0  0  0
   -3.6061    2.6941   -1.9960 H   0  0  0  0  0  0  0  0  0  0  0  0
   -3.2669   -0.7103    0.7265 H   0  0  0  0  0  0  0  0  0  0  0  0
   -2.1448   -1.3667   -0.4609 H   0  0  0  0  0  0  0  0  0  0  0  0
   -3.3662   -0.1648   -0.9417 H   0  0  0  0  0  0  0  0  0  0  0  0
   -1.7811    1.8197    3.3919 H   0  0  0  0  0  0  0  0  0  0  0  0
   -2.0472    0.1103    3.0101 H   0  0  0  0  0  0  0  0  0  0  0  0
   -3.2444    1.3257    2.5183 H   0  0  0  0  0  0  0  0  0  0  0  0
    4.6164   -5.2770    5.2957 H   0  0  0  0  0  0  0  0  0  0  0  0
    3.3802   -5.9018    4.2170 H   0  0  0  0  0  0  0  0  0  0  0  0
    3.3488   -4.1865    4.6596 H   0  0  0  0  0  0  0  0  0  0  0  0
    4.7522   -4.5335    1.1364 H   0  0  0  0  0  0  0  0  0  0  0  0
    3.3806   -3.8134    2.0276 H   0  0  0  0  0  0  0  0  0  0  0  0
    3.5156   -5.5695    1.8415 H   0  0  0  0  0  0  0  0  0  0  0  0
  1  2  1  0  0  0  0
  1 33  1  0  0  0  0
  1 34  1  0  0  0  0
  1 35  1  0  0  0  0
  2  3  1  0  0  0  0
  2 36  1  0  0  0  0
  2 37  1  0  0  0  0
  3  4  1  0  0  0  0
  3 11  1  0  0  0  0
  4  5  1  0  0  0  0
  4  9  2  0  0  0  0
  5  6  2  0  0  0  0
  5 38  1  0  0  0  0
  6  7  1  0  0  0  0
  6 39  1  0  0  0  0
  7  8  2  0  0  0  0
  7 27  1  0  0  0  0
  8  9  1  0  0  0  0
  8 40  1  0  0  0  0
  9 10  1  0  0  0  0
 10 11  2  0  0  0  0
 11 12  1  0  0  0  0
 12 13  1  0  0  0  0
 12 41  1  0  0  0  0
 12 42  1  0  0  0  0
 13 14  1  0  0  0  0
 14 15  2  0  0  0  0
 14 18  1  0  0  0  0
 15 16  1  0  0  0  0
 16 17  2  0  0  0  0
 16 26  1  0  0  0  0
 17 18  1  0  0  0  0
 17 25  1  0  0  0  0
 18 19  1  0  0  0  0
 19 20  1  0  0  0  0
 19 43  1  0  0  0  0
 19 44  1  0  0  0  0
 20 21  1  0  0  0  0
 20 24  1  0  0  0  0
 20 45  1  0  0  0  0
 21 22  1  0  0  0  0
 21 46  1  0  0  0  0
 21 47  1  0  0  0  0
 22 23  1  0  0  0  0
 22 48  1  0  0  0  0
 22 49  1  0  0  0  0
 23 24  1  0  0  0  0
 23 50  1  0  0  0  0
 23 51  1  0  0  0  0
 25 52  1  0  0  0  0
 25 53  1  0  0  0  0
 25 54  1  0  0  0  0
 26 55  1  0  0  0  0
 26 56  1  0  0  0  0
 26 57  1  0  0  0  0
 27 28  2  0  0  0  0
 27 29  2  0  0  0  0
 27 30  1  0  0  0  0
 30 31  1  0  0  0  0
 30 32  1  0  0  0  0
 31 58  1  0  0  0  0
 31 59  1  0  0  0  0
 31 60  1  0  0  0  0
 32 61  1  0  0  0  0
 32 62  1  0  0  0  0
 32 63  1  0  0  0  0
M  END
$$$$
