
 OpenBabel07202414213D

 31 33  0  0  0  0  0  0  0  0999 V2000
    1.4285   -1.4809    0.2551 C   0  0  0  0  0  0  0  0  0  0  0  0
    1.7307   -0.1418    0.7395 C   0  0  0  0  0  0  0  0  0  0  0  0
    0.8026    0.8253    0.6239 C   0  0  0  0  0  0  0  0  0  0  0  0
   -0.4437    0.5171    0.0693 N   0  0  0  0  0  0  0  0  0  0  0  0
   -0.7817   -0.7710   -0.3339 C   0  0  0  0  0  0  0  0  0  0  0  0
    0.2218   -1.7767   -0.2694 C   0  0  0  0  0  0  0  0  0  0  0  0
   -2.0575   -0.8203   -0.6533 N   0  0  0  0  0  0  0  0  0  0  0  0
   -2.5873    0.4283   -0.4411 N   0  0  0  0  0  0  0  0  0  0  0  0
   -1.6142    1.2475   -0.0974 C   0  0  0  0  0  0  0  0  0  0  0  0
   -1.8224    2.5882    0.1547 N   0  0  0  0  0  0  0  0  0  0  0  0
   -0.9745    3.5430   -0.3717 C   0  0  0  0  0  0  0  0  0  0  0  0
    0.0367    3.3062   -1.0251 O   0  0  0  0  0  0  0  0  0  0  0  0
   -1.4128    4.9697   -0.0663 C   0  0  0  0  0  0  0  0  0  0  0  0
   -2.5278    5.5340   -0.9205 C   0  0  0  0  0  0  0  0  0  0  0  0
   -2.6998    5.1921   -2.2689 C   0  0  0  0  0  0  0  0  0  0  0  0
   -3.7209    5.7759   -3.0301 C   0  0  0  0  0  0  0  0  0  0  0  0
   -4.5704    6.7254   -2.4620 C   0  0  0  0  0  0  0  0  0  0  0  0
   -4.3871    7.0978   -1.1350 C   0  0  0  0  0  0  0  0  0  0  0  0
   -3.3733    6.5150   -0.3696 C   0  0  0  0  0  0  0  0  0  0  0  0
   -5.4093    8.2900   -0.4310 Cl  0  0  0  0  0  0  0  0  0  0  0  0
    2.2010   -2.2391    0.3329 H   0  0  0  0  0  0  0  0  0  0  0  0
    2.7033    0.0421    1.1876 H   0  0  0  0  0  0  0  0  0  0  0  0
    0.9661    1.8372    0.9691 H   0  0  0  0  0  0  0  0  0  0  0  0
   -0.0125   -2.7744   -0.6264 H   0  0  0  0  0  0  0  0  0  0  0  0
   -2.8028    2.8391    0.2030 H   0  0  0  0  0  0  0  0  0  0  0  0
   -0.5344    5.6198   -0.1567 H   0  0  0  0  0  0  0  0  0  0  0  0
   -1.7150    4.9922    0.9891 H   0  0  0  0  0  0  0  0  0  0  0  0
   -2.0378    4.4764   -2.7551 H   0  0  0  0  0  0  0  0  0  0  0  0
   -3.8480    5.4953   -4.0733 H   0  0  0  0  0  0  0  0  0  0  0  0
   -5.3589    7.1758   -3.0591 H   0  0  0  0  0  0  0  0  0  0  0  0
   -3.2377    6.8390    0.6597 H   0  0  0  0  0  0  0  0  0  0  0  0
  1  2  1  0  0  0  0
  1  6  2  0  0  0  0
  1 21  1  0  0  0  0
  2  3  2  0  0  0  0
  2 22  1  0  0  0  0
  3  4  1  0  0  0  0
  3 23  1  0  0  0  0
  4  5  1  0  0  0  0
  4  9  1  0  0  0  0
  5  6  1  0  0  0  0
  5  7  2  0  0  0  0
  6 24  1  0  0  0  0
  7  8  1  0  0  0  0
  8  9  2  0  0  0  0
  9 10  1  0  0  0  0
 10 11  1  0  0  0  0
 10 25  1  0  0  0  0
 11 12  2  0  0  0  0
 11 13  1  0  0  0  0
 13 14  1  0  0  0  0
 13 26  1  0  0  0  0
 13 27  1  0  0  0  0
 14 15  1  0  0  0  0
 14 19  2  0  0  0  0
 15 16  2  0  0  0  0
 15 28  1  0  0  0  0
 16 17  1  0  0  0  0
 16 29  1  0  0  0  0
 17 18  2  0  0  0  0
 17 30  1  0  0  0  0
 18 19  1  0  0  0  0
 18 20  1  0  0  0  0
 19 31  1  0  0  0  0
M  END
$$$$
