
 OpenBabel07202414153D

 43 46  0  0  1  0  0  0  0  0999 V2000
    2.8220   -0.0688   -2.8249 C   0  0  0  0  0  0  0  0  0  0  0  0
    3.5410   -0.3738   -1.6354 O   0  0  0  0  0  0  0  0  0  0  0  0
    2.7668   -0.7413   -0.4668 C   0  0  1  0  0  0  0  0  0  0  0  0
    1.9713    0.5060    0.0961 C   0  0  0  0  0  0  0  0  0  0  0  0
    0.9210    0.4207    0.7204 O   0  0  0  0  0  0  0  0  0  0  0  0
    2.6360    1.6787   -0.2016 N   0  0  0  0  0  0  0  0  0  0  0  0
    2.4092    2.9990    0.2439 C   0  0  0  0  0  0  0  0  0  0  0  0
    1.5101    3.3161    1.2546 C   0  0  0  0  0  0  0  0  0  0  0  0
    1.4302    4.5378    1.8360 N   0  0  0  0  0  0  0  0  0  0  0  0
    2.2465    5.4984    1.3500 C   0  0  0  0  0  0  0  0  0  0  0  0
    3.0900    5.3381    0.2519 C   0  0  0  0  0  0  0  0  0  0  0  0
    3.8101    6.4203   -0.2969 C   0  0  0  0  0  0  0  0  0  0  0  0
    4.5919    6.2488   -1.4362 C   0  0  0  0  0  0  0  0  0  0  0  0
    4.6950    4.9905   -2.0012 C   0  0  0  0  0  0  0  0  0  0  0  0
    5.4323    4.8134   -3.1052 F   0  0  0  0  0  0  0  0  0  0  0  0
    4.0224    3.9027   -1.4553 C   0  0  0  0  0  0  0  0  0  0  0  0
    3.1834    4.0492   -0.3212 C   0  0  0  0  0  0  0  0  0  0  0  0
    1.8410   -1.9225   -0.7802 C   0  0  0  0  0  0  0  0  0  0  0  0
    1.4361   -2.6551    0.4841 C   0  0  0  0  0  0  0  0  0  0  0  0
    2.5541   -3.2017    1.1721 O   0  0  0  0  0  0  0  0  0  0  0  0
    3.6235   -2.3567    1.3152 C   0  0  0  0  0  0  0  0  0  0  0  0
    4.5866   -2.7778    2.2360 C   0  0  0  0  0  0  0  0  0  0  0  0
    5.7458   -2.0255    2.4403 C   0  0  0  0  0  0  0  0  0  0  0  0
    5.9383   -0.8598    1.7115 C   0  0  0  0  0  0  0  0  0  0  0  0
    7.3686    0.0693    1.9374 Cl  0  0  0  0  0  0  0  0  0  0  0  0
    4.9823   -0.4413    0.7836 C   0  0  0  0  0  0  0  0  0  0  0  0
    3.8018   -1.1853    0.5695 C   0  0  0  0  0  0  0  0  0  0  0  0
    3.5542    0.0244   -3.6331 H   0  0  0  0  0  0  0  0  0  0  0  0
    2.3034    0.8878   -2.7335 H   0  0  0  0  0  0  0  0  0  0  0  0
    2.1180   -0.8556   -3.1025 H   0  0  0  0  0  0  0  0  0  0  0  0
    3.4374    1.5365   -0.8019 H   0  0  0  0  0  0  0  0  0  0  0  0
    0.8187    2.5890    1.6691 H   0  0  0  0  0  0  0  0  0  0  0  0
    2.1854    6.4470    1.8808 H   0  0  0  0  0  0  0  0  0  0  0  0
    3.7315    7.4142    0.1413 H   0  0  0  0  0  0  0  0  0  0  0  0
    5.1097    7.0863   -1.8943 H   0  0  0  0  0  0  0  0  0  0  0  0
    4.1377    2.9588   -1.9747 H   0  0  0  0  0  0  0  0  0  0  0  0
    2.3644   -2.6250   -1.4437 H   0  0  0  0  0  0  0  0  0  0  0  0
    0.9428   -1.5891   -1.3135 H   0  0  0  0  0  0  0  0  0  0  0  0
    0.7935   -3.5000    0.2121 H   0  0  0  0  0  0  0  0  0  0  0  0
    0.8596   -2.0318    1.1743 H   0  0  0  0  0  0  0  0  0  0  0  0
    4.4386   -3.6978    2.7933 H   0  0  0  0  0  0  0  0  0  0  0  0
    6.4891   -2.3602    3.1581 H   0  0  0  0  0  0  0  0  0  0  0  0
    5.1787    0.4583    0.2077 H   0  0  0  0  0  0  0  0  0  0  0  0
  1  2  1  0  0  0  0
  1 28  1  0  0  0  0
  1 29  1  0  0  0  0
  1 30  1  0  0  0  0
  3 18  1  0  0  0  0
  3 27  1  0  0  0  0
  3  4  1  1  0  0  0
  3  2  1  0  0  0  0
  4  5  2  0  0  0  0
  4  6  1  0  0  0  0
  6  7  1  0  0  0  0
  6 31  1  0  0  0  0
  7  8  1  0  0  0  0
  7 17  2  0  0  0  0
  8  9  2  0  0  0  0
  8 32  1  0  0  0  0
  9 10  1  0  0  0  0
 10 11  2  0  0  0  0
 10 33  1  0  0  0  0
 11 12  1  0  0  0  0
 11 17  1  0  0  0  0
 12 13  2  0  0  0  0
 12 34  1  0  0  0  0
 13 14  1  0  0  0  0
 13 35  1  0  0  0  0
 14 15  1  0  0  0  0
 14 16  2  0  0  0  0
 16 17  1  0  0  0  0
 16 36  1  0  0  0  0
 18 19  1  0  0  0  0
 18 37  1  0  0  0  0
 18 38  1  0  0  0  0
 19 20  1  0  0  0  0
 19 39  1  0  0  0  0
 19 40  1  0  0  0  0
 20 21  1  0  0  0  0
 21 22  1  0  0  0  0
 21 27  2  0  0  0  0
 22 23  2  0  0  0  0
 22 41  1  0  0  0  0
 23 24  1  0  0  0  0
 23 42  1  0  0  0  0
 24 25  1  0  0  0  0
 24 26  2  0  0  0  0
 26 27  1  0  0  0  0
 26 43  1  0  0  0  0
M  END
$$$$
