
 OpenBabel07202414143D

 61 65  0  0  1  0  0  0  0  0999 V2000
   13.9951   -6.2808    3.5745 C   0  0  0  0  0  0  0  0  0  0  0  0
   13.1636   -5.1037    3.6386 N   0  0  0  0  0  0  0  0  0  0  0  0
   11.8865   -5.1541    3.1251 C   0  0  0  0  0  0  0  0  0  0  0  0
   11.4170   -6.1640    2.6019 O   0  0  0  0  0  0  0  0  0  0  0  0
   11.0352   -3.9358    3.2251 C   0  0  0  0  0  0  0  0  0  0  0  0
   11.5902   -2.6534    3.2991 C   0  0  0  0  0  0  0  0  0  0  0  0
   10.7438   -1.5490    3.2586 C   0  0  0  0  0  0  0  0  0  0  0  0
    9.3531   -1.7114    3.1024 C   0  0  0  0  0  0  0  0  0  0  0  0
    8.5344   -0.5968    2.9862 C   0  0  0  0  0  0  0  0  0  0  0  0
    7.2070   -0.6415    2.7848 N   0  0  0  0  0  0  0  0  0  0  0  0
    6.6596   -1.8752    2.6748 C   0  0  0  0  0  0  0  0  0  0  0  0
    7.3477   -3.0913    2.7729 C   0  0  0  0  0  0  0  0  0  0  0  0
    6.6547   -4.3467    2.6337 N   0  0  0  0  0  0  0  0  0  0  0  0
    5.4665   -4.4859    1.9234 C   0  0  0  0  0  0  0  0  0  0  0  0
    5.0028   -3.5927    1.2075 O   0  0  0  0  0  0  0  0  0  0  0  0
    4.6617   -5.7830    2.0520 C   0  0  3  0  0  0  0  0  0  0  0  0
    4.4503   -6.2156    3.5058 C   0  0  0  0  0  0  0  0  0  0  0  0
    5.3657   -7.3448    3.8923 N   0  0  0  0  0  0  0  0  0  0  0  0
    5.2898   -7.6553    5.5860 S   0  0  0  0  0  0  0  0  0  0  0  0
    5.6529   -6.4088    6.2215 O   0  0  0  0  0  0  0  0  0  0  0  0
    4.0141   -8.2885    5.8397 O   0  0  0  0  0  0  0  0  0  0  0  0
    6.6049   -8.8572    5.8299 C   0  0  0  0  0  0  0  0  0  0  0  0
    6.6521   -9.2131    7.2991 C   0  0  0  0  0  0  0  0  0  0  0  0
    6.9818   -8.1409    8.2033 C   0  0  0  0  0  0  0  0  0  0  0  0
    7.2818   -7.3133    8.9574 N   0  0  0  0  0  0  0  0  0  0  0  0
    5.8597  -10.3863    7.8614 C   0  0  0  0  0  0  0  0  0  0  0  0
    7.3292  -10.5421    7.6268 C   0  0  0  0  0  0  0  0  0  0  0  0
    5.0588   -8.5383    3.0559 C   0  0  0  0  0  0  0  0  0  0  0  0
    5.0229   -8.2481    1.5735 C   0  0  0  0  0  0  0  0  0  0  0  0
    4.9606   -9.3430    0.6902 C   0  0  0  0  0  0  0  0  0  0  0  0
    4.8078   -9.1423   -0.6780 C   0  0  0  0  0  0  0  0  0  0  0  0
    4.7490   -7.8441   -1.1747 C   0  0  0  0  0  0  0  0  0  0  0  0
    4.5002   -7.6064   -2.8619 Cl  0  0  0  0  0  0  0  0  0  0  0  0
    4.8191   -6.7425   -0.3111 C   0  0  0  0  0  0  0  0  0  0  0  0
    4.9238   -6.9300    1.0808 C   0  0  0  0  0  0  0  0  0  0  0  0
    8.7556   -3.0040    3.0225 C   0  0  0  0  0  0  0  0  0  0  0  0
    9.6420   -4.0995    3.1219 C   0  0  0  0  0  0  0  0  0  0  0  0
   14.9512   -6.0737    4.0607 H   0  0  0  0  0  0  0  0  0  0  0  0
   14.1577   -6.5487    2.5300 H   0  0  0  0  0  0  0  0  0  0  0  0
   13.4861   -7.1063    4.0815 H   0  0  0  0  0  0  0  0  0  0  0  0
   13.4463   -4.3404    4.2386 H   0  0  0  0  0  0  0  0  0  0  0  0
   12.6631   -2.4874    3.3306 H   0  0  0  0  0  0  0  0  0  0  0  0
   11.1775   -0.5505    3.2968 H   0  0  0  0  0  0  0  0  0  0  0  0
    8.9386    0.4164    3.0337 H   0  0  0  0  0  0  0  0  0  0  0  0
    5.5835   -1.8378    2.5274 H   0  0  0  0  0  0  0  0  0  0  0  0
    7.1007   -5.1799    2.9975 H   0  0  0  0  0  0  0  0  0  0  0  0
    3.6518   -5.4499    1.7528 H   0  0  0  0  0  0  0  0  0  0  0  0
    3.4135   -6.5636    3.6224 H   0  0  0  0  0  0  0  0  0  0  0  0
    4.5799   -5.3597    4.1753 H   0  0  0  0  0  0  0  0  0  0  0  0
    7.5433   -8.4063    5.4967 H   0  0  0  0  0  0  0  0  0  0  0  0
    6.3727   -9.7406    5.2304 H   0  0  0  0  0  0  0  0  0  0  0  0
    5.1863  -10.9469    7.2220 H   0  0  0  0  0  0  0  0  0  0  0  0
    5.5233  -10.3439    8.8959 H   0  0  0  0  0  0  0  0  0  0  0  0
    7.6416  -11.1954    6.8191 H   0  0  0  0  0  0  0  0  0  0  0  0
    7.9846  -10.5919    8.4924 H   0  0  0  0  0  0  0  0  0  0  0  0
    4.0866   -8.9590    3.3374 H   0  0  0  0  0  0  0  0  0  0  0  0
    5.8391   -9.2880    3.2164 H   0  0  0  0  0  0  0  0  0  0  0  0
    4.9774  -10.3628    1.0727 H   0  0  0  0  0  0  0  0  0  0  0  0
    4.7056   -9.9980   -1.3421 H   0  0  0  0  0  0  0  0  0  0  0  0
    4.7114   -5.7410   -0.7260 H   0  0  0  0  0  0  0  0  0  0  0  0
    9.2561   -5.1168    3.0688 H   0  0  0  0  0  0  0  0  0  0  0  0
  1  2  1  0  0  0  0
  1 38  1  0  0  0  0
  1 39  1  0  0  0  0
  1 40  1  0  0  0  0
  2  3  1  0  0  0  0
  2 41  1  0  0  0  0
  3  4  2  0  0  0  0
  3  5  1  0  0  0  0
  5  6  1  0  0  0  0
  5 37  2  0  0  0  0
  6  7  2  0  0  0  0
  6 42  1  0  0  0  0
  7  8  1  0  0  0  0
  7 43  1  0  0  0  0
  8  9  1  0  0  0  0
  8 36  2  0  0  0  0
  9 10  2  0  0  0  0
  9 44  1  0  0  0  0
 10 11  1  0  0  0  0
 11 12  2  0  0  0  0
 11 45  1  0  0  0  0
 12 13  1  0  0  0  0
 12 36  1  0  0  0  0
 13 14  1  0  0  0  0
 13 46  1  0  0  0  0
 14 15  2  0  0  0  0
 14 16  1  0  0  0  0
 16 17  1  0  0  0  0
 16 35  1  0  0  0  0
 16 47  1  0  0  0  0
 17 18  1  0  0  0  0
 17 48  1  0  0  0  0
 17 49  1  0  0  0  0
 18 19  1  0  0  0  0
 18 28  1  0  0  0  0
 19 20  2  0  0  0  0
 19 21  2  0  0  0  0
 19 22  1  0  0  0  0
 22 23  1  0  0  0  0
 22 50  1  0  0  0  0
 22 51  1  0  0  0  0
 23 24  1  0  0  0  0
 23 26  1  0  0  0  0
 23 27  1  0  0  0  0
 24 25  3  0  0  0  0
 26 27  1  0  0  0  0
 26 52  1  0  0  0  0
 26 53  1  0  0  0  0
 27 54  1  0  0  0  0
 27 55  1  0  0  0  0
 28 29  1  0  0  0  0
 28 56  1  0  0  0  0
 28 57  1  0  0  0  0
 29 30  1  0  0  0  0
 29 35  2  0  0  0  0
 30 31  2  0  0  0  0
 30 58  1  0  0  0  0
 31 32  1  0  0  0  0
 31 59  1  0  0  0  0
 32 33  1  0  0  0  0
 32 34  2  0  0  0  0
 34 35  1  0  0  0  0
 34 60  1  0  0  0  0
 36 37  1  0  0  0  0
 37 61  1  0  0  0  0
M  END
$$$$
