
 OpenBabel07202414163D

 55 58  0  0  0  0  0  0  0  0999 V2000
   -5.1293    4.7977    4.9025 C   0  0  0  0  0  0  0  0  0  0  0  0
   -3.6411    4.5993    4.9961 C   0  0  0  0  0  0  0  0  0  0  0  0
   -3.0512    4.7872    6.2603 C   0  0  0  0  0  0  0  0  0  0  0  0
   -1.6871    4.6167    6.4147 C   0  0  0  0  0  0  0  0  0  0  0  0
   -0.8740    4.2358    5.4186 N   0  0  0  0  0  0  0  0  0  0  0  0
   -1.4517    4.0592    4.2042 C   0  0  0  0  0  0  0  0  0  0  0  0
   -2.8094    4.2468    3.9152 C   0  0  0  0  0  0  0  0  0  0  0  0
   -3.3262    4.0969    2.5984 N   0  0  0  0  0  0  0  0  0  0  0  0
   -2.5584    4.0868    1.4427 C   0  0  0  0  0  0  0  0  0  0  0  0
   -1.3396    4.2610    1.4107 O   0  0  0  0  0  0  0  0  0  0  0  0
   -3.2675    3.8751    0.1146 C   0  0  0  0  0  0  0  0  0  0  0  0
   -4.7538    3.6479    0.1429 C   0  0  0  0  0  0  0  0  0  0  0  0
   -5.6397    4.7289    0.1196 C   0  0  0  0  0  0  0  0  0  0  0  0
   -7.0228    4.5199    0.1470 C   0  0  0  0  0  0  0  0  0  0  0  0
   -7.5243    3.2212    0.1572 C   0  0  0  0  0  0  0  0  0  0  0  0
   -6.6460    2.1405    0.1835 C   0  0  0  0  0  0  0  0  0  0  0  0
   -5.2652    2.3446    0.1908 C   0  0  0  0  0  0  0  0  0  0  0  0
   -7.2658    0.5378    0.1903 Cl  0  0  0  0  0  0  0  0  0  0  0  0
   -7.7763    5.6548    0.1028 O   0  0  0  0  0  0  0  0  0  0  0  0
   -9.0597    5.5826    0.7227 C   0  0  0  0  0  0  0  0  0  0  0  0
   -9.6657    6.9142    0.5320 C   0  0  0  0  0  0  0  0  0  0  0  0
   -9.9996    7.6395   -0.5829 C   0  0  0  0  0  0  0  0  0  0  0  0
  -10.5793    8.8277   -0.0741 C   0  0  0  0  0  0  0  0  0  0  0  0
  -10.5865    8.8095    1.2681 N   0  0  0  0  0  0  0  0  0  0  0  0
  -10.0076    7.6100    1.6436 O   0  0  0  0  0  0  0  0  0  0  0  0
  -11.1452    9.9243   -0.8501 C   0  0  0  0  0  0  0  0  0  0  0  0
  -12.1711   10.7114   -0.3153 C   0  0  0  0  0  0  0  0  0  0  0  0
  -12.7684   11.7166   -1.0813 C   0  0  0  0  0  0  0  0  0  0  0  0
  -12.3428   11.9488   -2.3897 C   0  0  0  0  0  0  0  0  0  0  0  0
  -11.3054   11.1799   -2.9190 C   0  0  0  0  0  0  0  0  0  0  0  0
  -10.7084   10.1733   -2.1554 C   0  0  0  0  0  0  0  0  0  0  0  0
  -12.8591   12.8813   -3.2454 O   0  0  0  0  0  0  0  0  0  0  0  0
  -13.9256   13.6770   -2.7437 C   0  0  0  0  0  0  0  0  0  0  0  0
   -5.5049    5.3323    5.7855 H   0  0  0  0  0  0  0  0  0  0  0  0
   -5.6467    3.8343    4.8609 H   0  0  0  0  0  0  0  0  0  0  0  0
   -5.3996    5.4062    4.0358 H   0  0  0  0  0  0  0  0  0  0  0  0
   -3.6432    5.0834    7.1210 H   0  0  0  0  0  0  0  0  0  0  0  0
   -1.2007    4.7890    7.3694 H   0  0  0  0  0  0  0  0  0  0  0  0
   -0.7406    3.7271    3.4549 H   0  0  0  0  0  0  0  0  0  0  0  0
   -4.3340    4.1312    2.4976 H   0  0  0  0  0  0  0  0  0  0  0  0
   -2.7822    3.0193   -0.3713 H   0  0  0  0  0  0  0  0  0  0  0  0
   -3.0482    4.7459   -0.5181 H   0  0  0  0  0  0  0  0  0  0  0  0
   -5.2610    5.7504    0.0763 H   0  0  0  0  0  0  0  0  0  0  0  0
   -8.5891    3.0210    0.1163 H   0  0  0  0  0  0  0  0  0  0  0  0
   -4.5935    1.4898    0.2103 H   0  0  0  0  0  0  0  0  0  0  0  0
   -8.9555    5.3408    1.7869 H   0  0  0  0  0  0  0  0  0  0  0  0
   -9.7015    4.8433    0.2311 H   0  0  0  0  0  0  0  0  0  0  0  0
   -9.8626    7.3451   -1.6084 H   0  0  0  0  0  0  0  0  0  0  0  0
  -12.5303   10.5347    0.6971 H   0  0  0  0  0  0  0  0  0  0  0  0
  -13.5693   12.2888   -0.6258 H   0  0  0  0  0  0  0  0  0  0  0  0
  -10.9652   11.3595   -3.9359 H   0  0  0  0  0  0  0  0  0  0  0  0
   -9.9025    9.5968   -2.6014 H   0  0  0  0  0  0  0  0  0  0  0  0
  -14.2685   14.3269   -3.5532 H   0  0  0  0  0  0  0  0  0  0  0  0
  -13.5806   14.3133   -1.9221 H   0  0  0  0  0  0  0  0  0  0  0  0
  -14.7739   13.0569   -2.4349 H   0  0  0  0  0  0  0  0  0  0  0  0
  1  2  1  0  0  0  0
  1 34  1  0  0  0  0
  1 35  1  0  0  0  0
  1 36  1  0  0  0  0
  2  3  1  0  0  0  0
  2  7  2  0  0  0  0
  3  4  2  0  0  0  0
  3 37  1  0  0  0  0
  4  5  1  0  0  0  0
  4 38  1  0  0  0  0
  5  6  2  0  0  0  0
  6  7  1  0  0  0  0
  6 39  1  0  0  0  0
  7  8  1  0  0  0  0
  8  9  1  0  0  0  0
  8 40  1  0  0  0  0
  9 10  2  0  0  0  0
  9 11  1  0  0  0  0
 11 12  1  0  0  0  0
 11 41  1  0  0  0  0
 11 42  1  0  0  0  0
 12 13  1  0  0  0  0
 12 17  2  0  0  0  0
 13 14  2  0  0  0  0
 13 43  1  0  0  0  0
 14 15  1  0  0  0  0
 14 19  1  0  0  0  0
 15 16  2  0  0  0  0
 15 44  1  0  0  0  0
 16 17  1  0  0  0  0
 16 18  1  0  0  0  0
 17 45  1  0  0  0  0
 19 20  1  0  0  0  0
 20 21  1  0  0  0  0
 20 46  1  0  0  0  0
 20 47  1  0  0  0  0
 21 22  2  0  0  0  0
 21 25  1  0  0  0  0
 22 23  1  0  0  0  0
 22 48  1  0  0  0  0
 23 24  2  0  0  0  0
 23 26  1  0  0  0  0
 24 25  1  0  0  0  0
 26 27  1  0  0  0  0
 26 31  2  0  0  0  0
 27 28  2  0  0  0  0
 27 49  1  0  0  0  0
 28 29  1  0  0  0  0
 28 50  1  0  0  0  0
 29 30  2  0  0  0  0
 29 32  1  0  0  0  0
 30 31  1  0  0  0  0
 30 51  1  0  0  0  0
 31 52  1  0  0  0  0
 32 33  1  0  0  0  0
 33 53  1  0  0  0  0
 33 54  1  0  0  0  0
 33 55  1  0  0  0  0
M  END
$$$$
