
 OpenBabel07202414153D

 66 71  0  0  1  0  0  0  0  0999 V2000
    2.7932   -0.6752    1.2327 C   0  0  0  0  0  0  0  0  0  0  0  0
    2.4898   -0.0196   -0.1067 C   0  0  1  0  0  0  0  0  0  0  0  0
    2.8794    1.4420    0.0035 C   0  0  0  0  0  0  0  0  0  0  0  0
    3.5673    1.8294   -1.1971 N   0  0  0  0  0  0  0  0  0  0  0  0
    4.1884    3.1353   -1.2167 C   0  0  0  0  0  0  0  0  0  0  0  0
    5.4944    3.3023   -1.6809 C   0  0  0  0  0  0  0  0  0  0  0  0
    6.2636    4.3913   -1.4362 N   0  0  0  0  0  0  0  0  0  0  0  0
    5.7005    5.3913   -0.7281 C   0  0  0  0  0  0  0  0  0  0  0  0
    4.3721    5.4166   -0.3209 C   0  0  0  0  0  0  0  0  0  0  0  0
    3.8394    6.5444    0.3394 C   0  0  0  0  0  0  0  0  0  0  0  0
    2.5025    6.5895    0.7257 C   0  0  0  0  0  0  0  0  0  0  0  0
    1.6726    5.5249    0.4107 C   0  0  0  0  0  0  0  0  0  0  0  0
    2.1941    4.4214   -0.2753 C   0  0  0  0  0  0  0  0  0  0  0  0
    3.5702    4.2853   -0.6044 C   0  0  0  0  0  0  0  0  0  0  0  0
    3.9831    0.6797   -1.9021 C   0  0  0  0  0  0  0  0  0  0  0  0
    4.8009    0.6297   -2.8165 O   0  0  0  0  0  0  0  0  0  0  0  0
    3.1669   -0.5433   -1.4013 C   0  0  1  0  0  0  0  0  0  0  0  0
    4.0975   -1.7644   -1.2219 C   0  0  0  0  0  0  0  0  0  0  0  0
    3.3506   -2.9916   -0.9191 N   0  0  0  0  0  0  0  0  0  0  0  0
    3.5937   -3.7447    0.3128 C   0  0  0  0  0  0  0  0  0  0  0  0
    4.5737   -4.9062    0.3132 C   0  0  0  0  0  0  0  0  0  0  0  0
    5.1498   -5.2249    1.3558 O   0  0  0  0  0  0  0  0  0  0  0  0
    4.6769   -5.6517   -0.8403 N   0  0  0  0  0  0  0  0  0  0  0  0
    5.4721   -6.8446   -0.7544 C   0  0  0  0  0  0  0  0  0  0  0  0
    5.5592   -7.5659   -2.0385 C   0  0  0  0  0  0  0  0  0  0  0  0
    5.2293   -8.8774   -2.3270 C   0  0  0  0  0  0  0  0  0  0  0  0
    5.6682   -9.0842   -3.6433 C   0  0  0  0  0  0  0  0  0  0  0  0
    6.2016   -7.9851   -4.1764 N   0  0  0  0  0  0  0  0  0  0  0  0
    6.1253   -7.0722   -3.1866 N   0  0  0  0  0  0  0  0  0  0  0  0
    6.6442   -5.7448   -3.4212 C   0  0  0  0  0  0  0  0  0  0  0  0
    2.2916   -3.3739   -1.7203 C   0  0  0  0  0  0  0  0  0  0  0  0
    1.8238   -4.5061   -1.6895 O   0  0  0  0  0  0  0  0  0  0  0  0
    1.6685   -2.2933   -2.5425 C   0  0  0  0  0  0  0  0  0  0  0  0
    0.5736   -2.6421   -3.3472 C   0  0  0  0  0  0  0  0  0  0  0  0
   -0.1616   -1.6559   -3.9999 C   0  0  0  0  0  0  0  0  0  0  0  0
    0.2023   -0.3197   -3.8651 C   0  0  0  0  0  0  0  0  0  0  0  0
    1.3054    0.0371   -3.0846 C   0  0  0  0  0  0  0  0  0  0  0  0
    2.0555   -0.9397   -2.4001 C   0  0  0  0  0  0  0  0  0  0  0  0
    2.3898   -0.0685    2.0518 H   0  0  0  0  0  0  0  0  0  0  0  0
    3.8673   -0.7761    1.4084 H   0  0  0  0  0  0  0  0  0  0  0  0
    2.3016   -1.6474    1.3067 H   0  0  0  0  0  0  0  0  0  0  0  0
    1.3975   -0.0603   -0.2166 H   0  0  0  0  0  0  0  0  0  0  0  0
    3.5623    1.6211    0.8444 H   0  0  0  0  0  0  0  0  0  0  0  0
    1.9665    2.0001    0.1739 H   0  0  0  0  0  0  0  0  0  0  0  0
    6.0236    2.5276   -2.2288 H   0  0  0  0  0  0  0  0  0  0  0  0
    6.3741    6.2141   -0.4956 H   0  0  0  0  0  0  0  0  0  0  0  0
    4.4677    7.4106    0.5520 H   0  0  0  0  0  0  0  0  0  0  0  0
    2.1002    7.4643    1.2318 H   0  0  0  0  0  0  0  0  0  0  0  0
    0.6208    5.5526    0.6777 H   0  0  0  0  0  0  0  0  0  0  0  0
    1.4734    3.6760   -0.5956 H   0  0  0  0  0  0  0  0  0  0  0  0
    4.8680   -1.5957   -0.4626 H   0  0  0  0  0  0  0  0  0  0  0  0
    4.6337   -1.9713   -2.1590 H   0  0  0  0  0  0  0  0  0  0  0  0
    2.6339   -4.1431    0.6699 H   0  0  0  0  0  0  0  0  0  0  0  0
    3.9565   -3.0480    1.0724 H   0  0  0  0  0  0  0  0  0  0  0  0
    3.8628   -5.6366   -1.4535 H   0  0  0  0  0  0  0  0  0  0  0  0
    5.0291   -7.4941    0.0139 H   0  0  0  0  0  0  0  0  0  0  0  0
    6.4775   -6.5749   -0.4012 H   0  0  0  0  0  0  0  0  0  0  0  0
    4.7858   -9.5972   -1.6544 H   0  0  0  0  0  0  0  0  0  0  0  0
    5.6346   -9.9931   -4.2302 H   0  0  0  0  0  0  0  0  0  0  0  0
    7.2339   -5.7467   -4.3425 H   0  0  0  0  0  0  0  0  0  0  0  0
    7.2820   -5.4579   -2.5828 H   0  0  0  0  0  0  0  0  0  0  0  0
    5.7996   -5.0595   -3.5236 H   0  0  0  0  0  0  0  0  0  0  0  0
    0.2616   -3.6820   -3.4307 H   0  0  0  0  0  0  0  0  0  0  0  0
   -1.0312   -1.9294   -4.5926 H   0  0  0  0  0  0  0  0  0  0  0  0
   -0.3882    0.4520   -4.3546 H   0  0  0  0  0  0  0  0  0  0  0  0
    1.5398    1.0958   -2.9934 H   0  0  0  0  0  0  0  0  0  0  0  0
  1 39  1  0  0  0  0
  1 40  1  0  0  0  0
  1 41  1  0  0  0  0
  2  3  1  0  0  0  0
  2 17  1  0  0  0  0
  2  1  1  0  0  0  0
  2 42  1  6  0  0  0
  3  4  1  0  0  0  0
  3 43  1  0  0  0  0
  3 44  1  0  0  0  0
  4  5  1  0  0  0  0
  4 15  1  0  0  0  0
  5  6  1  0  0  0  0
  5 14  2  0  0  0  0
  6  7  2  0  0  0  0
  6 45  1  0  0  0  0
  7  8  1  0  0  0  0
  8  9  2  0  0  0  0
  8 46  1  0  0  0  0
  9 10  1  0  0  0  0
  9 14  1  0  0  0  0
 10 11  2  0  0  0  0
 10 47  1  0  0  0  0
 11 12  1  0  0  0  0
 11 48  1  0  0  0  0
 12 13  2  0  0  0  0
 12 49  1  0  0  0  0
 13 14  1  0  0  0  0
 13 50  1  0  0  0  0
 15 16  2  0  0  0  0
 17 15  1  6  0  0  0
 17 18  1  0  0  0  0
 17 38  1  0  0  0  0
 18 19  1  0  0  0  0
 18 51  1  0  0  0  0
 18 52  1  0  0  0  0
 19 20  1  0  0  0  0
 19 31  1  0  0  0  0
 20 21  1  0  0  0  0
 20 53  1  0  0  0  0
 20 54  1  0  0  0  0
 21 22  2  0  0  0  0
 21 23  1  0  0  0  0
 23 24  1  0  0  0  0
 23 55  1  0  0  0  0
 24 25  1  0  0  0  0
 24 56  1  0  0  0  0
 24 57  1  0  0  0  0
 25 26  2  0  0  0  0
 25 29  1  0  0  0  0
 26 27  1  0  0  0  0
 26 58  1  0  0  0  0
 27 28  2  0  0  0  0
 27 59  1  0  0  0  0
 28 29  1  0  0  0  0
 29 30  1  0  0  0  0
 30 60  1  0  0  0  0
 30 61  1  0  0  0  0
 30 62  1  0  0  0  0
 31 32  2  0  0  0  0
 31 33  1  0  0  0  0
 33 34  1  0  0  0  0
 33 38  2  0  0  0  0
 34 35  2  0  0  0  0
 34 63  1  0  0  0  0
 35 36  1  0  0  0  0
 35 64  1  0  0  0  0
 36 37  2  0  0  0  0
 36 65  1  0  0  0  0
 37 38  1  0  0  0  0
 37 66  1  0  0  0  0
M  END
$$$$
