
 OpenBabel07202414123D

 55 57  0  0  0  0  0  0  0  0999 V2000
    1.0002    2.0300    1.8299 C   0  0  0  0  0  0  0  0  0  0  0  0
    2.5291    2.0580    1.8773 C   0  0  0  0  0  0  0  0  0  0  0  0
    3.0014    1.6625    3.2784 C   0  0  0  0  0  0  0  0  0  0  0  0
    3.1033    1.1466    0.7711 C   0  0  0  0  0  0  0  0  0  0  0  0
    4.5673    1.1639    0.7140 N   0  0  0  0  0  0  0  0  0  0  0  0
    5.1889    2.1955    0.0380 C   0  0  0  0  0  0  0  0  0  0  0  0
    6.5194    2.4033    0.0056 C   0  0  0  0  0  0  0  0  0  0  0  0
    7.3728    1.4131    0.7230 C   0  0  0  0  0  0  0  0  0  0  0  0
    8.7730    1.5017    0.8064 C   0  0  0  0  0  0  0  0  0  0  0  0
    9.5182    0.5655    1.5420 C   0  0  0  0  0  0  0  0  0  0  0  0
    8.8874   -0.4798    2.2095 C   0  0  0  0  0  0  0  0  0  0  0  0
    7.5057   -0.5925    2.1435 C   0  0  0  0  0  0  0  0  0  0  0  0
    6.7584    0.3449    1.4096 C   0  0  0  0  0  0  0  0  0  0  0  0
    5.2795    0.2004    1.4122 C   0  0  0  0  0  0  0  0  0  0  0  0
    4.7583   -0.7261    2.0271 O   0  0  0  0  0  0  0  0  0  0  0  0
    7.0698    3.4958   -0.6640 N   0  0  0  0  0  0  0  0  0  0  0  0
    6.3836    4.6631   -0.9606 C   0  0  0  0  0  0  0  0  0  0  0  0
    5.2553    4.9321   -0.5600 O   0  0  0  0  0  0  0  0  0  0  0  0
    7.0648    5.5239   -1.7967 N   0  0  0  0  0  0  0  0  0  0  0  0
    6.4298    6.8017   -2.1613 C   0  0  0  0  0  0  0  0  0  0  0  0
    6.9040    7.2882   -3.5374 C   0  0  0  0  0  0  0  0  0  0  0  0
    6.4598    8.7150   -3.8763 C   0  0  0  0  0  0  0  0  0  0  0  0
    7.4584    9.7773   -3.4176 C   0  0  0  0  0  0  0  0  0  0  0  0
    7.5560    9.9891   -1.9096 C   0  0  0  0  0  0  0  0  0  0  0  0
    7.7859    8.7237   -1.0840 C   0  0  0  0  0  0  0  0  0  0  0  0
    6.5477    7.8322   -1.0238 C   0  0  0  0  0  0  0  0  0  0  0  0
    0.5753    2.7041    2.5814 H   0  0  0  0  0  0  0  0  0  0  0  0
    0.6173    1.0224    2.0258 H   0  0  0  0  0  0  0  0  0  0  0  0
    0.6332    2.3488    0.8491 H   0  0  0  0  0  0  0  0  0  0  0  0
    2.8562    3.0895    1.6926 H   0  0  0  0  0  0  0  0  0  0  0  0
    2.7326    0.6264    3.5102 H   0  0  0  0  0  0  0  0  0  0  0  0
    2.5456    2.3063    4.0381 H   0  0  0  0  0  0  0  0  0  0  0  0
    4.0859    1.7685    3.3793 H   0  0  0  0  0  0  0  0  0  0  0  0
    2.7172    1.4619   -0.2082 H   0  0  0  0  0  0  0  0  0  0  0  0
    2.7591    0.1159    0.9182 H   0  0  0  0  0  0  0  0  0  0  0  0
    4.5012    2.8494   -0.4892 H   0  0  0  0  0  0  0  0  0  0  0  0
    9.3227    2.3021    0.3235 H   0  0  0  0  0  0  0  0  0  0  0  0
   10.6011    0.6591    1.6042 H   0  0  0  0  0  0  0  0  0  0  0  0
    9.4626   -1.1989    2.7866 H   0  0  0  0  0  0  0  0  0  0  0  0
    7.0037   -1.3998    2.6742 H   0  0  0  0  0  0  0  0  0  0  0  0
    8.0672    3.5189   -0.7950 H   0  0  0  0  0  0  0  0  0  0  0  0
    8.0655    5.4485   -1.8663 H   0  0  0  0  0  0  0  0  0  0  0  0
    5.3589    6.5898   -2.2675 H   0  0  0  0  0  0  0  0  0  0  0  0
    6.4819    6.6091   -4.2914 H   0  0  0  0  0  0  0  0  0  0  0  0
    7.9918    7.1945   -3.6351 H   0  0  0  0  0  0  0  0  0  0  0  0
    5.4592    8.9257   -3.4801 H   0  0  0  0  0  0  0  0  0  0  0  0
    6.3792    8.7941   -4.9679 H   0  0  0  0  0  0  0  0  0  0  0  0
    7.1776   10.7357   -3.8734 H   0  0  0  0  0  0  0  0  0  0  0  0
    8.4526    9.5347   -3.8120 H   0  0  0  0  0  0  0  0  0  0  0  0
    6.6512   10.4997   -1.5554 H   0  0  0  0  0  0  0  0  0  0  0  0
    8.3850   10.6824   -1.7189 H   0  0  0  0  0  0  0  0  0  0  0  0
    8.0187    9.0414   -0.0598 H   0  0  0  0  0  0  0  0  0  0  0  0
    8.6610    8.1718   -1.4441 H   0  0  0  0  0  0  0  0  0  0  0  0
    5.6492    8.4635   -1.0288 H   0  0  0  0  0  0  0  0  0  0  0  0
    6.5338    7.3170   -0.0559 H   0  0  0  0  0  0  0  0  0  0  0  0
  1  2  1  0  0  0  0
  1 27  1  0  0  0  0
  1 28  1  0  0  0  0
  1 29  1  0  0  0  0
  2  3  1  0  0  0  0
  2  4  1  0  0  0  0
  2 30  1  0  0  0  0
  3 31  1  0  0  0  0
  3 32  1  0  0  0  0
  3 33  1  0  0  0  0
  4  5  1  0  0  0  0
  4 34  1  0  0  0  0
  4 35  1  0  0  0  0
  5  6  1  0  0  0  0
  5 14  1  0  0  0  0
  6  7  2  0  0  0  0
  6 36  1  0  0  0  0
  7  8  1  0  0  0  0
  7 16  1  0  0  0  0
  8  9  1  0  0  0  0
  8 13  2  0  0  0  0
  9 10  2  0  0  0  0
  9 37  1  0  0  0  0
 10 11  1  0  0  0  0
 10 38  1  0  0  0  0
 11 12  2  0  0  0  0
 11 39  1  0  0  0  0
 12 13  1  0  0  0  0
 12 40  1  0  0  0  0
 13 14  1  0  0  0  0
 14 15  2  0  0  0  0
 16 17  1  0  0  0  0
 16 41  1  0  0  0  0
 17 18  2  0  0  0  0
 17 19  1  0  0  0  0
 19 20  1  0  0  0  0
 19 42  1  0  0  0  0
 20 21  1  0  0  0  0
 20 26  1  0  0  0  0
 20 43  1  0  0  0  0
 21 22  1  0  0  0  0
 21 44  1  0  0  0  0
 21 45  1  0  0  0  0
 22 23  1  0  0  0  0
 22 46  1  0  0  0  0
 22 47  1  0  0  0  0
 23 24  1  0  0  0  0
 23 48  1  0  0  0  0
 23 49  1  0  0  0  0
 24 25  1  0  0  0  0
 24 50  1  0  0  0  0
 24 51  1  0  0  0  0
 25 26  1  0  0  0  0
 25 52  1  0  0  0  0
 25 53  1  0  0  0  0
 26 54  1  0  0  0  0
 26 55  1  0  0  0  0
M  END
$$$$
