
 OpenBabel07202414143D

 53 56  0  0  0  0  0  0  0  0999 V2000
    0.4079   -0.1459   -0.4438 C   0  0  0  0  0  0  0  0  0  0  0  0
    1.6031   -0.4087    0.2834 O   0  0  0  0  0  0  0  0  0  0  0  0
    2.2963   -1.5501   -0.0407 C   0  0  0  0  0  0  0  0  0  0  0  0
    2.9738   -2.1187    1.0463 C   0  0  0  0  0  0  0  0  0  0  0  0
    3.7732   -3.2552    0.8855 C   0  0  0  0  0  0  0  0  0  0  0  0
    4.5529   -3.8855    2.2907 Cl  0  0  0  0  0  0  0  0  0  0  0  0
    3.9322   -3.8314   -0.3770 C   0  0  0  0  0  0  0  0  0  0  0  0
    4.8079   -5.0192   -0.6638 C   0  0  0  0  0  0  0  0  0  0  0  0
    3.2575   -3.2477   -1.4624 C   0  0  0  0  0  0  0  0  0  0  0  0
    2.4188   -2.1263   -1.3159 C   0  0  0  0  0  0  0  0  0  0  0  0
    1.8364   -1.5255   -2.4563 N   0  0  0  0  0  0  0  0  0  0  0  0
    1.3909   -2.1354   -3.6481 C   0  0  0  0  0  0  0  0  0  0  0  0
    0.9175   -3.4529   -3.6846 C   0  0  0  0  0  0  0  0  0  0  0  0
    0.4452   -4.0005   -4.8768 C   0  0  0  0  0  0  0  0  0  0  0  0
   -0.0972   -5.6330   -4.9106 Cl  0  0  0  0  0  0  0  0  0  0  0  0
    0.3994   -3.2354   -6.0397 C   0  0  0  0  0  0  0  0  0  0  0  0
    0.8191   -1.9010   -6.0163 C   0  0  0  0  0  0  0  0  0  0  0  0
    0.7107   -1.0305   -7.2402 C   0  0  0  0  0  0  0  0  0  0  0  0
    2.0085   -0.3510   -7.6421 C   0  0  0  0  0  0  0  0  0  0  0  0
    2.0291    0.8429   -7.9253 O   0  0  0  0  0  0  0  0  0  0  0  0
    3.0924   -1.2030   -7.7512 N   0  0  0  0  0  0  0  0  0  0  0  0
    4.3857   -0.7719   -8.1360 C   0  0  0  0  0  0  0  0  0  0  0  0
    4.8996    0.4531   -7.7042 C   0  0  0  0  0  0  0  0  0  0  0  0
    6.1344    0.9141   -8.0039 N   0  0  0  0  0  0  0  0  0  0  0  0
    6.8834    0.1319   -8.8087 C   0  0  0  0  0  0  0  0  0  0  0  0
    6.4752   -1.1000   -9.3251 C   0  0  0  0  0  0  0  0  0  0  0  0
    7.2933   -1.8333  -10.2029 C   0  0  0  0  0  0  0  0  0  0  0  0
    6.8532   -3.0386  -10.7454 C   0  0  0  0  0  0  0  0  0  0  0  0
    5.5989   -3.5305  -10.4090 C   0  0  0  0  0  0  0  0  0  0  0  0
    4.7818   -2.8164   -9.5295 C   0  0  0  0  0  0  0  0  0  0  0  0
    5.1958   -1.5835   -8.9677 C   0  0  0  0  0  0  0  0  0  0  0  0
    1.2977   -1.3613   -4.8101 C   0  0  0  0  0  0  0  0  0  0  0  0
   -0.2017    0.5363    0.1572 H   0  0  0  0  0  0  0  0  0  0  0  0
   -0.1826   -1.0515   -0.6188 H   0  0  0  0  0  0  0  0  0  0  0  0
    0.6325    0.3776   -1.3775 H   0  0  0  0  0  0  0  0  0  0  0  0
    2.8713   -1.6637    2.0285 H   0  0  0  0  0  0  0  0  0  0  0  0
    5.2698   -5.4492    0.2280 H   0  0  0  0  0  0  0  0  0  0  0  0
    5.6131   -4.7268   -1.3470 H   0  0  0  0  0  0  0  0  0  0  0  0
    4.2163   -5.8098   -1.1367 H   0  0  0  0  0  0  0  0  0  0  0  0
    3.4217   -3.6649   -2.4557 H   0  0  0  0  0  0  0  0  0  0  0  0
    2.2835   -0.6230   -2.6169 H   0  0  0  0  0  0  0  0  0  0  0  0
    0.9006   -4.0544   -2.7803 H   0  0  0  0  0  0  0  0  0  0  0  0
    0.0108   -3.6754   -6.9553 H   0  0  0  0  0  0  0  0  0  0  0  0
   -0.0306   -0.2494   -7.0320 H   0  0  0  0  0  0  0  0  0  0  0  0
    0.3468   -1.6018   -8.1013 H   0  0  0  0  0  0  0  0  0  0  0  0
    2.9032   -2.1954   -7.7759 H   0  0  0  0  0  0  0  0  0  0  0  0
    4.3309    1.1092   -7.0506 H   0  0  0  0  0  0  0  0  0  0  0  0
    7.8585    0.5483   -9.0503 H   0  0  0  0  0  0  0  0  0  0  0  0
    8.2725   -1.4544  -10.4888 H   0  0  0  0  0  0  0  0  0  0  0  0
    7.4837   -3.5855  -11.4418 H   0  0  0  0  0  0  0  0  0  0  0  0
    5.2437   -4.4613  -10.8439 H   0  0  0  0  0  0  0  0  0  0  0  0
    3.7980   -3.2265   -9.3236 H   0  0  0  0  0  0  0  0  0  0  0  0
    1.6093   -0.3170   -4.7803 H   0  0  0  0  0  0  0  0  0  0  0  0
  1  2  1  0  0  0  0
  1 33  1  0  0  0  0
  1 34  1  0  0  0  0
  1 35  1  0  0  0  0
  2  3  1  0  0  0  0
  3  4  2  0  0  0  0
  3 10  1  0  0  0  0
  4  5  1  0  0  0  0
  4 36  1  0  0  0  0
  5  6  1  0  0  0  0
  5  7  2  0  0  0  0
  7  8  1  0  0  0  0
  7  9  1  0  0  0  0
  8 37  1  0  0  0  0
  8 38  1  0  0  0  0
  8 39  1  0  0  0  0
  9 10  2  0  0  0  0
  9 40  1  0  0  0  0
 10 11  1  0  0  0  0
 11 12  1  0  0  0  0
 11 41  1  0  0  0  0
 12 13  2  0  0  0  0
 12 32  1  0  0  0  0
 13 14  1  0  0  0  0
 13 42  1  0  0  0  0
 14 15  1  0  0  0  0
 14 16  2  0  0  0  0
 16 17  1  0  0  0  0
 16 43  1  0  0  0  0
 17 18  1  0  0  0  0
 17 32  2  0  0  0  0
 18 19  1  0  0  0  0
 18 44  1  0  0  0  0
 18 45  1  0  0  0  0
 19 20  2  0  0  0  0
 19 21  1  0  0  0  0
 21 22  1  0  0  0  0
 21 46  1  0  0  0  0
 22 23  2  0  0  0  0
 22 31  1  0  0  0  0
 23 24  1  0  0  0  0
 23 47  1  0  0  0  0
 24 25  2  0  0  0  0
 25 26  1  0  0  0  0
 25 48  1  0  0  0  0
 26 27  2  0  0  0  0
 26 31  1  0  0  0  0
 27 28  1  0  0  0  0
 27 49  1  0  0  0  0
 28 29  2  0  0  0  0
 28 50  1  0  0  0  0
 29 30  1  0  0  0  0
 29 51  1  0  0  0  0
 30 31  2  0  0  0  0
 30 52  1  0  0  0  0
 32 53  1  0  0  0  0
M  END
$$$$
