
 OpenBabel07202414163D

 42 45  0  0  0  0  0  0  0  0999 V2000
    1.1344    0.2760    0.7017 C   0  0  0  0  0  0  0  0  0  0  0  0
    2.5750    0.0724    0.2941 C   0  0  0  0  0  0  0  0  0  0  0  0
    3.3347    1.2670    0.2324 C   0  0  0  0  0  0  0  0  0  0  0  0
    4.7151    1.2407    0.0536 C   0  0  0  0  0  0  0  0  0  0  0  0
    5.3465    0.0286   -0.1506 C   0  0  0  0  0  0  0  0  0  0  0  0
    4.5782   -1.1470   -0.2860 C   0  0  0  0  0  0  0  0  0  0  0  0
    3.1800   -1.1891   -0.0124 C   0  0  0  0  0  0  0  0  0  0  0  0
    2.4395   -2.5213    0.0164 C   0  0  0  0  0  0  0  0  0  0  0  0
    2.9619   -3.6552    0.7233 C   0  0  0  0  0  0  0  0  0  0  0  0
    2.2741   -4.8879    0.7254 C   0  0  0  0  0  0  0  0  0  0  0  0
    1.0121   -5.0113    0.1717 C   0  0  0  0  0  0  0  0  0  0  0  0
    0.4279   -3.9208   -0.4647 C   0  0  0  0  0  0  0  0  0  0  0  0
    1.1725   -2.7270   -0.6220 C   0  0  0  0  0  0  0  0  0  0  0  0
    0.5815   -1.7432   -1.5592 C   0  0  0  0  0  0  0  0  0  0  0  0
    1.2592   -0.9999   -2.2565 O   0  0  0  0  0  0  0  0  0  0  0  0
   -0.8870   -1.6655   -1.6366 C   0  0  0  0  0  0  0  0  0  0  0  0
   -1.6296   -2.7242   -1.3216 C   0  0  0  0  0  0  0  0  0  0  0  0
   -0.9898   -3.9914   -0.9259 C   0  0  0  0  0  0  0  0  0  0  0  0
   -1.6731   -5.0058   -0.9450 O   0  0  0  0  0  0  0  0  0  0  0  0
    0.3700   -6.2091    0.2726 O   0  0  0  0  0  0  0  0  0  0  0  0
    4.2769   -3.7138    1.4718 C   0  0  0  0  0  0  0  0  0  0  0  0
    5.2042   -2.3073   -0.6928 O   0  0  0  0  0  0  0  0  0  0  0  0
    6.8220   -0.0242   -0.1323 C   0  0  0  0  0  0  0  0  0  0  0  0
    7.4102   -1.1007   -0.1438 O   0  0  0  0  0  0  0  0  0  0  0  0
    7.5767    1.2385   -0.0308 C   0  0  0  0  0  0  0  0  0  0  0  0
    6.9536    2.4132    0.0683 C   0  0  0  0  0  0  0  0  0  0  0  0
    5.4856    2.4941    0.1199 C   0  0  0  0  0  0  0  0  0  0  0  0
    4.9393    3.5833    0.2224 O   0  0  0  0  0  0  0  0  0  0  0  0
    0.9868    1.2711    1.1409 H   0  0  0  0  0  0  0  0  0  0  0  0
    0.8289   -0.4481    1.4599 H   0  0  0  0  0  0  0  0  0  0  0  0
    0.4627    0.2520   -0.1545 H   0  0  0  0  0  0  0  0  0  0  0  0
    2.8440    2.2306    0.3814 H   0  0  0  0  0  0  0  0  0  0  0  0
    2.7393   -5.7494    1.2030 H   0  0  0  0  0  0  0  0  0  0  0  0
   -1.3234   -0.7411   -1.9961 H   0  0  0  0  0  0  0  0  0  0  0  0
   -2.7111   -2.7266   -1.3993 H   0  0  0  0  0  0  0  0  0  0  0  0
    0.9640   -6.8904    0.6251 H   0  0  0  0  0  0  0  0  0  0  0  0
    4.6641   -2.7377    1.7641 H   0  0  0  0  0  0  0  0  0  0  0  0
    5.0215   -4.2465    0.8665 H   0  0  0  0  0  0  0  0  0  0  0  0
    4.1538   -4.2746    2.4054 H   0  0  0  0  0  0  0  0  0  0  0  0
    6.1730   -2.2162   -0.5469 H   0  0  0  0  0  0  0  0  0  0  0  0
    8.6577    1.1614   -0.0284 H   0  0  0  0  0  0  0  0  0  0  0  0
    7.4952    3.3513    0.1378 H   0  0  0  0  0  0  0  0  0  0  0  0
  1  2  1  0  0  0  0
  1 29  1  0  0  0  0
  1 30  1  0  0  0  0
  1 31  1  0  0  0  0
  2  3  1  0  0  0  0
  2  7  2  0  0  0  0
  3  4  2  0  0  0  0
  3 32  1  0  0  0  0
  4  5  1  0  0  0  0
  4 27  1  0  0  0  0
  5  6  2  0  0  0  0
  5 23  1  0  0  0  0
  6  7  1  0  0  0  0
  6 22  1  0  0  0  0
  7  8  1  0  0  0  0
  8  9  1  0  0  0  0
  8 13  2  0  0  0  0
  9 10  2  0  0  0  0
  9 21  1  0  0  0  0
 10 11  1  0  0  0  0
 10 33  1  0  0  0  0
 11 12  2  0  0  0  0
 11 20  1  0  0  0  0
 12 13  1  0  0  0  0
 12 18  1  0  0  0  0
 13 14  1  0  0  0  0
 14 15  2  0  0  0  0
 14 16  1  0  0  0  0
 16 17  2  0  0  0  0
 16 34  1  0  0  0  0
 17 18  1  0  0  0  0
 17 35  1  0  0  0  0
 18 19  2  0  0  0  0
 20 36  1  0  0  0  0
 21 37  1  0  0  0  0
 21 38  1  0  0  0  0
 21 39  1  0  0  0  0
 22 40  1  0  0  0  0
 23 24  2  0  0  0  0
 23 25  1  0  0  0  0
 25 26  2  0  0  0  0
 25 41  1  0  0  0  0
 26 27  1  0  0  0  0
 26 42  1  0  0  0  0
 27 28  2  0  0  0  0
M  END
$$$$
