
 OpenBabel07202414193D

 57 61  0  0  0  0  0  0  0  0999 V2000
    2.8884    1.3645   -1.9830 N   0  0  0  0  0  0  0  0  0  0  0  0
    2.1158    0.5488   -1.1988 C   0  0  0  0  0  0  0  0  0  0  0  0
    1.1234    1.0026   -0.6392 O   0  0  0  0  0  0  0  0  0  0  0  0
    2.5220   -0.8572   -1.1365 C   0  0  0  0  0  0  0  0  0  0  0  0
    3.8371   -1.3011   -1.2896 C   0  0  0  0  0  0  0  0  0  0  0  0
    4.9556   -0.5236   -1.3998 N   0  0  0  0  0  0  0  0  0  0  0  0
    6.0739   -0.7557   -2.2243 C   0  0  0  0  0  0  0  0  0  0  0  0
    7.3114   -0.2179   -1.8394 C   0  0  0  0  0  0  0  0  0  0  0  0
    8.4779   -0.4747   -2.5767 C   0  0  0  0  0  0  0  0  0  0  0  0
    9.8080    0.0730   -2.1316 C   0  0  0  0  0  0  0  0  0  0  0  0
   10.1520    1.3861   -2.8053 C   0  0  0  0  0  0  0  0  0  0  0  0
   10.9608    1.4356   -3.7279 O   0  0  0  0  0  0  0  0  0  0  0  0
    9.5228    2.4837   -2.2411 N   0  0  0  0  0  0  0  0  0  0  0  0
    9.7280    3.8086   -2.6979 C   0  0  0  0  0  0  0  0  0  0  0  0
    9.8377    4.0915   -4.0615 C   0  0  0  0  0  0  0  0  0  0  0  0
   10.0110    5.3299   -4.5738 N   0  0  0  0  0  0  0  0  0  0  0  0
   10.1182    6.3354   -3.6805 C   0  0  0  0  0  0  0  0  0  0  0  0
   10.0417    6.1804   -2.2944 C   0  0  0  0  0  0  0  0  0  0  0  0
   10.2076    7.2735   -1.4262 C   0  0  0  0  0  0  0  0  0  0  0  0
   10.1692    7.0972   -0.0445 C   0  0  0  0  0  0  0  0  0  0  0  0
    9.9593    5.8301    0.4841 C   0  0  0  0  0  0  0  0  0  0  0  0
    9.7847    4.7380   -0.3684 C   0  0  0  0  0  0  0  0  0  0  0  0
    9.8215    4.8825   -1.7778 C   0  0  0  0  0  0  0  0  0  0  0  0
    8.3933   -1.2566   -3.7352 C   0  0  0  0  0  0  0  0  0  0  0  0
    7.1711   -1.8000   -4.1191 C   0  0  0  0  0  0  0  0  0  0  0  0
    7.0776   -2.7935   -5.5208 Cl  0  0  0  0  0  0  0  0  0  0  0  0
    6.0225   -1.5581   -3.3703 C   0  0  0  0  0  0  0  0  0  0  0  0
    3.9346   -3.0189   -1.1902 S   0  0  0  0  0  0  0  0  0  0  0  0
    2.2652   -3.1798   -0.9882 C   0  0  0  0  0  0  0  0  0  0  0  0
    1.6141   -1.9669   -0.9192 C   0  0  0  0  0  0  0  0  0  0  0  0
    0.1291   -1.8960   -0.7032 C   0  0  0  0  0  0  0  0  0  0  0  0
   -0.4291   -3.2203   -0.1542 C   0  0  0  0  0  0  0  0  0  0  0  0
    0.1028   -4.4239   -0.9414 C   0  0  0  0  0  0  0  0  0  0  0  0
    1.6305   -4.5301   -0.8515 C   0  0  0  0  0  0  0  0  0  0  0  0
    2.4976    2.2765   -2.1794 H   0  0  0  0  0  0  0  0  0  0  0  0
    3.4888    0.9502   -2.6862 H   0  0  0  0  0  0  0  0  0  0  0  0
    4.9076    0.4306   -1.0496 H   0  0  0  0  0  0  0  0  0  0  0  0
    7.3690    0.3748   -0.9285 H   0  0  0  0  0  0  0  0  0  0  0  0
   10.6017   -0.6486   -2.3636 H   0  0  0  0  0  0  0  0  0  0  0  0
    9.8330    0.1952   -1.0420 H   0  0  0  0  0  0  0  0  0  0  0  0
    9.1288    2.3659   -1.3191 H   0  0  0  0  0  0  0  0  0  0  0  0
    9.7518    3.3099   -4.8121 H   0  0  0  0  0  0  0  0  0  0  0  0
   10.2894    7.3111   -4.1291 H   0  0  0  0  0  0  0  0  0  0  0  0
   10.3901    8.2701   -1.8238 H   0  0  0  0  0  0  0  0  0  0  0  0
   10.3192    7.9460    0.6172 H   0  0  0  0  0  0  0  0  0  0  0  0
    9.9494    5.6856    1.5616 H   0  0  0  0  0  0  0  0  0  0  0  0
    9.6596    3.7642    0.0951 H   0  0  0  0  0  0  0  0  0  0  0  0
    9.2828   -1.4557   -4.3302 H   0  0  0  0  0  0  0  0  0  0  0  0
    5.0819   -1.9928   -3.6966 H   0  0  0  0  0  0  0  0  0  0  0  0
   -0.3511   -1.6695   -1.6630 H   0  0  0  0  0  0  0  0  0  0  0  0
   -0.1281   -1.0932   -0.0046 H   0  0  0  0  0  0  0  0  0  0  0  0
   -1.5240   -3.2016   -0.1915 H   0  0  0  0  0  0  0  0  0  0  0  0
   -0.1436   -3.3276    0.9003 H   0  0  0  0  0  0  0  0  0  0  0  0
   -0.1973   -4.3262   -1.9927 H   0  0  0  0  0  0  0  0  0  0  0  0
   -0.3474   -5.3496   -0.5660 H   0  0  0  0  0  0  0  0  0  0  0  0
    1.9920   -5.2112   -1.6311 H   0  0  0  0  0  0  0  0  0  0  0  0
    1.9105   -4.9594    0.1182 H   0  0  0  0  0  0  0  0  0  0  0  0
  1  2  1  0  0  0  0
  1 35  1  0  0  0  0
  1 36  1  0  0  0  0
  2  3  2  0  0  0  0
  2  4  1  0  0  0  0
  4  5  2  0  0  0  0
  4 30  1  0  0  0  0
  5  6  1  0  0  0  0
  5 28  1  0  0  0  0
  6  7  1  0  0  0  0
  6 37  1  0  0  0  0
  7  8  2  0  0  0  0
  7 27  1  0  0  0  0
  8  9  1  0  0  0  0
  8 38  1  0  0  0  0
  9 10  1  0  0  0  0
  9 24  2  0  0  0  0
 10 11  1  0  0  0  0
 10 39  1  0  0  0  0
 10 40  1  0  0  0  0
 11 12  2  0  0  0  0
 11 13  1  0  0  0  0
 13 14  1  0  0  0  0
 13 41  1  0  0  0  0
 14 15  2  0  0  0  0
 14 23  1  0  0  0  0
 15 16  1  0  0  0  0
 15 42  1  0  0  0  0
 16 17  2  0  0  0  0
 17 18  1  0  0  0  0
 17 43  1  0  0  0  0
 18 19  2  0  0  0  0
 18 23  1  0  0  0  0
 19 20  1  0  0  0  0
 19 44  1  0  0  0  0
 20 21  2  0  0  0  0
 20 45  1  0  0  0  0
 21 22  1  0  0  0  0
 21 46  1  0  0  0  0
 22 23  2  0  0  0  0
 22 47  1  0  0  0  0
 24 25  1  0  0  0  0
 24 48  1  0  0  0  0
 25 26  1  0  0  0  0
 25 27  2  0  0  0  0
 27 49  1  0  0  0  0
 28 29  1  0  0  0  0
 29 30  2  0  0  0  0
 29 34  1  0  0  0  0
 30 31  1  0  0  0  0
 31 32  1  0  0  0  0
 31 50  1  0  0  0  0
 31 51  1  0  0  0  0
 32 33  1  0  0  0  0
 32 52  1  0  0  0  0
 32 53  1  0  0  0  0
 33 34  1  0  0  0  0
 33 54  1  0  0  0  0
 33 55  1  0  0  0  0
 34 56  1  0  0  0  0
 34 57  1  0  0  0  0
M  END
$$$$
