
 OpenBabel07202414183D

 39 42  0  0  1  0  0  0  0  0999 V2000
   10.4216   -3.4803   -0.0159 Cl  0  0  0  0  0  0  0  0  0  0  0  0
    8.7716   -3.8475   -0.3341 C   0  0  0  0  0  0  0  0  0  0  0  0
    8.4499   -4.9080   -1.1769 C   0  0  0  0  0  0  0  0  0  0  0  0
    7.1109   -5.2033   -1.4350 C   0  0  0  0  0  0  0  0  0  0  0  0
    6.0982   -4.4512   -0.8413 C   0  0  0  0  0  0  0  0  0  0  0  0
    6.4154   -3.3923    0.0208 C   0  0  0  0  0  0  0  0  0  0  0  0
    7.7653   -3.0904    0.2655 C   0  0  0  0  0  0  0  0  0  0  0  0
    5.3205   -2.6437    0.7488 C   0  0  2  0  0  0  0  0  0  0  0  0
    5.1198   -3.1078    2.2071 C   0  0  0  0  0  0  0  0  0  0  0  0
    4.6302   -2.3397    3.0356 O   0  0  0  0  0  0  0  0  0  0  0  0
    5.4504   -4.4222    2.4482 N   0  0  0  0  0  0  0  0  0  0  0  0
    5.5450   -5.1141    3.6808 C   0  0  0  0  0  0  0  0  0  0  0  0
    5.2694   -4.5089    4.9061 C   0  0  0  0  0  0  0  0  0  0  0  0
    5.5046   -5.0877    6.1075 N   0  0  0  0  0  0  0  0  0  0  0  0
    5.9988   -6.3438    6.0881 C   0  0  0  0  0  0  0  0  0  0  0  0
    6.2232   -7.0889    4.9302 C   0  0  0  0  0  0  0  0  0  0  0  0
    6.6591   -8.4272    4.9966 C   0  0  0  0  0  0  0  0  0  0  0  0
    6.8496   -9.1770    3.8398 C   0  0  0  0  0  0  0  0  0  0  0  0
    6.6329   -8.5911    2.6036 C   0  0  0  0  0  0  0  0  0  0  0  0
    6.2137   -7.2607    2.5221 C   0  0  0  0  0  0  0  0  0  0  0  0
    5.9891   -6.4697    3.6842 C   0  0  0  0  0  0  0  0  0  0  0  0
    4.0247   -2.7655   -0.0475 C   0  0  0  0  0  0  0  0  0  0  0  0
    3.7629   -4.2210   -0.4027 C   0  0  0  0  0  0  0  0  0  0  0  0
    4.8210   -4.8309   -1.1456 O   0  0  0  0  0  0  0  0  0  0  0  0
    9.2327   -5.5065   -1.6357 H   0  0  0  0  0  0  0  0  0  0  0  0
    6.8564   -6.0298   -2.0948 H   0  0  0  0  0  0  0  0  0  0  0  0
    8.0319   -2.2753    0.9354 H   0  0  0  0  0  0  0  0  0  0  0  0
    5.6000   -1.5838    0.7921 H   0  0  0  0  0  0  0  0  0  0  0  0
    5.8017   -4.9381    1.6571 H   0  0  0  0  0  0  0  0  0  0  0  0
    4.8654   -3.5057    4.9869 H   0  0  0  0  0  0  0  0  0  0  0  0
    6.2114   -6.7534    7.0698 H   0  0  0  0  0  0  0  0  0  0  0  0
    6.8291   -8.9013    5.9635 H   0  0  0  0  0  0  0  0  0  0  0  0
    7.1627  -10.2156    3.9076 H   0  0  0  0  0  0  0  0  0  0  0  0
    6.7739   -9.1723    1.6938 H   0  0  0  0  0  0  0  0  0  0  0  0
    6.0351   -6.8724    1.5240 H   0  0  0  0  0  0  0  0  0  0  0  0
    4.1216   -2.1902   -0.9774 H   0  0  0  0  0  0  0  0  0  0  0  0
    3.1745   -2.3544    0.5086 H   0  0  0  0  0  0  0  0  0  0  0  0
    2.8611   -4.2841   -1.0235 H   0  0  0  0  0  0  0  0  0  0  0  0
    3.5681   -4.8279    0.4889 H   0  0  0  0  0  0  0  0  0  0  0  0
  1  2  1  0  0  0  0
  2  3  1  0  0  0  0
  2  7  2  0  0  0  0
  3  4  2  0  0  0  0
  3 25  1  0  0  0  0
  4  5  1  0  0  0  0
  4 26  1  0  0  0  0
  5  6  2  0  0  0  0
  5 24  1  0  0  0  0
  6  7  1  0  0  0  0
  6  8  1  0  0  0  0
  7 27  1  0  0  0  0
  8  9  1  0  0  0  0
  8 22  1  0  0  0  0
  8 28  1  1  0  0  0
  9 10  2  0  0  0  0
  9 11  1  0  0  0  0
 11 12  1  0  0  0  0
 11 29  1  0  0  0  0
 12 13  1  0  0  0  0
 12 21  2  0  0  0  0
 13 14  2  0  0  0  0
 13 30  1  0  0  0  0
 14 15  1  0  0  0  0
 15 16  2  0  0  0  0
 15 31  1  0  0  0  0
 16 17  1  0  0  0  0
 16 21  1  0  0  0  0
 17 18  2  0  0  0  0
 17 32  1  0  0  0  0
 18 19  1  0  0  0  0
 18 33  1  0  0  0  0
 19 20  2  0  0  0  0
 19 34  1  0  0  0  0
 20 21  1  0  0  0  0
 20 35  1  0  0  0  0
 22 23  1  0  0  0  0
 22 36  1  0  0  0  0
 22 37  1  0  0  0  0
 23 24  1  0  0  0  0
 23 38  1  0  0  0  0
 23 39  1  0  0  0  0
M  END
$$$$
