
 OpenBabel07202414123D

 50 53  0  0  1  0  0  0  0  0999 V2000
    3.3755    0.3687   -1.0831 C   0  0  0  0  0  0  0  0  0  0  0  0
    2.6786   -0.3949    0.0543 C   0  0  0  0  0  0  0  0  0  0  0  0
    1.1563   -0.3775   -0.1250 C   0  0  0  0  0  0  0  0  0  0  0  0
    3.1020   -1.7598   -0.0270 O   0  0  0  0  0  0  0  0  0  0  0  0
    3.0697    0.1995    1.4073 C   0  0  0  0  0  0  0  0  0  0  0  0
    3.6894   -0.5544    2.4050 C   0  0  0  0  0  0  0  0  0  0  0  0
    4.0697    0.0440    3.6081 C   0  0  0  0  0  0  0  0  0  0  0  0
    3.8528    1.4164    3.8303 C   0  0  0  0  0  0  0  0  0  0  0  0
    4.2505    2.0239    5.0195 C   0  0  0  0  0  0  0  0  0  0  0  0
    4.0924    3.3325    5.2975 N   0  0  0  0  0  0  0  0  0  0  0  0
    3.5121    4.0909    4.3361 C   0  0  0  0  0  0  0  0  0  0  0  0
    3.0620    3.6126    3.1043 C   0  0  0  0  0  0  0  0  0  0  0  0
    2.4634    4.4539    2.1203 N   0  0  0  0  0  0  0  0  0  0  0  0
    2.2804    5.8199    2.1871 C   0  0  0  0  0  0  0  0  0  0  0  0
    2.6195    6.5343    3.1309 O   0  0  0  0  0  0  0  0  0  0  0  0
    1.5069    6.4483    1.0255 C   0  0  3  0  0  0  0  0  0  0  0  0
   -0.0026    6.3603    1.2722 C   0  0  0  0  0  0  0  0  0  0  0  0
   -0.5515    4.9970    0.8908 C   0  0  0  0  0  0  0  0  0  0  0  0
   -0.1855    4.6158   -0.4656 N   0  0  0  0  0  0  0  0  0  0  0  0
    0.9762    5.1085   -1.0509 C   0  0  0  0  0  0  0  0  0  0  0  0
    1.3171    4.6853   -2.3423 C   0  0  0  0  0  0  0  0  0  0  0  0
    2.5258    5.0660   -2.9302 C   0  0  0  0  0  0  0  0  0  0  0  0
    3.4144    5.8652   -2.2200 C   0  0  0  0  0  0  0  0  0  0  0  0
    4.9137    6.3174   -2.9302 Cl  0  0  0  0  0  0  0  0  0  0  0  0
    3.0959    6.2984   -0.9352 C   0  0  0  0  0  0  0  0  0  0  0  0
    1.8749    5.9249   -0.3471 C   0  0  0  0  0  0  0  0  0  0  0  0
    3.2301    2.2201    2.8496 C   0  0  0  0  0  0  0  0  0  0  0  0
    2.8265    1.5651    1.6600 C   0  0  0  0  0  0  0  0  0  0  0  0
    3.0835   -0.0311   -2.0603 H   0  0  0  0  0  0  0  0  0  0  0  0
    4.4643    0.2579   -1.0112 H   0  0  0  0  0  0  0  0  0  0  0  0
    3.1449    1.4391   -1.0821 H   0  0  0  0  0  0  0  0  0  0  0  0
    0.8734   -0.8052   -1.0934 H   0  0  0  0  0  0  0  0  0  0  0  0
    0.7380    0.6330   -0.0674 H   0  0  0  0  0  0  0  0  0  0  0  0
    0.6666   -0.9911    0.6409 H   0  0  0  0  0  0  0  0  0  0  0  0
    2.9864   -2.0493   -0.9476 H   0  0  0  0  0  0  0  0  0  0  0  0
    3.8943   -1.6136    2.2553 H   0  0  0  0  0  0  0  0  0  0  0  0
    4.5543   -0.5677    4.3661 H   0  0  0  0  0  0  0  0  0  0  0  0
    4.7295    1.4552    5.8126 H   0  0  0  0  0  0  0  0  0  0  0  0
    3.4287    5.1322    4.6250 H   0  0  0  0  0  0  0  0  0  0  0  0
    2.1797    4.0164    1.2536 H   0  0  0  0  0  0  0  0  0  0  0  0
    1.7678    7.5167    1.0368 H   0  0  0  0  0  0  0  0  0  0  0  0
   -0.5099    7.1280    0.6725 H   0  0  0  0  0  0  0  0  0  0  0  0
   -0.2382    6.5713    2.3223 H   0  0  0  0  0  0  0  0  0  0  0  0
   -1.6441    5.0042    0.9766 H   0  0  0  0  0  0  0  0  0  0  0  0
   -0.1950    4.2258    1.5815 H   0  0  0  0  0  0  0  0  0  0  0  0
   -0.9681    4.5447   -1.1138 H   0  0  0  0  0  0  0  0  0  0  0  0
    0.6409    4.0423   -2.9012 H   0  0  0  0  0  0  0  0  0  0  0  0
    2.7683    4.7280   -3.9341 H   0  0  0  0  0  0  0  0  0  0  0  0
    3.7924    6.9354   -0.3934 H   0  0  0  0  0  0  0  0  0  0  0  0
    2.3137    2.1273    0.8865 H   0  0  0  0  0  0  0  0  0  0  0  0
  1  2  1  0  0  0  0
  1 29  1  0  0  0  0
  1 30  1  0  0  0  0
  1 31  1  0  0  0  0
  2  3  1  0  0  0  0
  2  4  1  0  0  0  0
  2  5  1  0  0  0  0
  3 32  1  0  0  0  0
  3 33  1  0  0  0  0
  3 34  1  0  0  0  0
  4 35  1  0  0  0  0
  5  6  1  0  0  0  0
  5 28  2  0  0  0  0
  6  7  2  0  0  0  0
  6 36  1  0  0  0  0
  7  8  1  0  0  0  0
  7 37  1  0  0  0  0
  8  9  1  0  0  0  0
  8 27  2  0  0  0  0
  9 10  2  0  0  0  0
  9 38  1  0  0  0  0
 10 11  1  0  0  0  0
 11 12  2  0  0  0  0
 11 39  1  0  0  0  0
 12 13  1  0  0  0  0
 12 27  1  0  0  0  0
 13 14  1  0  0  0  0
 13 40  1  0  0  0  0
 14 15  2  0  0  0  0
 14 16  1  0  0  0  0
 16 17  1  0  0  0  0
 16 26  1  0  0  0  0
 16 41  1  0  0  0  0
 17 18  1  0  0  0  0
 17 42  1  0  0  0  0
 17 43  1  0  0  0  0
 18 19  1  0  0  0  0
 18 44  1  0  0  0  0
 18 45  1  0  0  0  0
 19 20  1  0  0  0  0
 19 46  1  0  0  0  0
 20 21  1  0  0  0  0
 20 26  2  0  0  0  0
 21 22  2  0  0  0  0
 21 47  1  0  0  0  0
 22 23  1  0  0  0  0
 22 48  1  0  0  0  0
 23 24  1  0  0  0  0
 23 25  2  0  0  0  0
 25 26  1  0  0  0  0
 25 49  1  0  0  0  0
 27 28  1  0  0  0  0
 28 50  1  0  0  0  0
M  END
$$$$
