
 OpenBabel07202414203D

 50 54  0  0  1  0  0  0  0  0999 V2000
    1.4046    0.0634    0.8894 C   0  0  0  0  0  0  0  0  0  0  0  0
    0.9623    1.0262   -0.0157 C   0  0  0  0  0  0  0  0  0  0  0  0
   -0.3775    1.0563   -0.4129 C   0  0  0  0  0  0  0  0  0  0  0  0
   -1.2981    0.1409    0.1194 C   0  0  0  0  0  0  0  0  0  0  0  0
   -0.8230   -0.8532    0.9904 C   0  0  0  0  0  0  0  0  0  0  0  0
    0.5173   -0.8927    1.3731 C   0  0  0  0  0  0  0  0  0  0  0  0
   -2.7731    0.3184   -0.1429 C   0  0  3  0  0  0  0  0  0  0  0  0
   -3.3185   -0.4222   -1.3788 C   0  0  3  0  0  0  0  0  0  0  0  0
   -3.5615   -1.9258   -0.9709 C   0  0  0  0  0  0  0  0  0  0  0  0
   -4.4403   -1.1795    0.1125 C   0  0  3  0  0  0  0  0  0  0  0  0
   -4.8899   -0.3341   -1.1415 C   0  0  0  0  0  0  0  0  0  0  0  0
   -3.5489   -0.3237    0.8834 O   0  0  0  0  0  0  0  0  0  0  0  0
   -5.4029   -1.9704    0.9778 C   0  0  0  0  0  0  0  0  0  0  0  0
   -6.1093   -1.0946    1.9150 N   0  0  0  0  0  0  0  0  0  0  0  0
   -6.9888   -1.8405    2.8077 C   0  0  0  0  0  0  0  0  0  0  0  0
   -7.7165   -0.9082    3.7510 C   0  0  0  0  0  0  0  0  0  0  0  0
   -7.0025   -0.1427    4.7031 C   0  0  0  0  0  0  0  0  0  0  0  0
   -7.6641    0.7439    5.5662 C   0  0  0  0  0  0  0  0  0  0  0  0
   -9.0324    0.8623    5.4493 C   0  0  0  0  0  0  0  0  0  0  0  0
   -9.7369    0.1047    4.5282 C   0  0  0  0  0  0  0  0  0  0  0  0
   -9.1102   -0.7902    3.6817 C   0  0  0  0  0  0  0  0  0  0  0  0
  -11.0910    0.3220    4.5482 O   0  0  0  0  0  0  0  0  0  0  0  0
  -11.2239    1.5250    5.3407 C   0  0  0  0  0  0  0  0  0  0  0  0
   -9.9882    1.6833    6.2310 C   0  0  0  0  0  0  0  0  0  0  0  0
   -2.7641   -0.0287   -2.7447 C   0  0  0  0  0  0  0  0  0  0  0  0
   -3.2214    0.8627   -3.4546 O   0  0  0  0  0  0  0  0  0  0  0  0
   -1.6980   -0.7606   -3.1622 O   0  0  0  0  0  0  0  0  0  0  0  0
    2.4363    0.0677    1.2317 H   0  0  0  0  0  0  0  0  0  0  0  0
    1.6561    1.7766   -0.3872 H   0  0  0  0  0  0  0  0  0  0  0  0
   -0.7025    1.8371   -1.0993 H   0  0  0  0  0  0  0  0  0  0  0  0
   -1.5098   -1.5730    1.4321 H   0  0  0  0  0  0  0  0  0  0  0  0
    0.8549   -1.6449    2.0808 H   0  0  0  0  0  0  0  0  0  0  0  0
   -3.0367    1.3831   -0.1515 H   0  0  0  0  0  0  0  0  0  0  0  0
   -2.7045   -2.4859   -0.5916 H   0  0  0  0  0  0  0  0  0  0  0  0
   -4.0960   -2.5512   -1.6968 H   0  0  0  0  0  0  0  0  0  0  0  0
   -5.2926    0.6603   -0.9248 H   0  0  0  0  0  0  0  0  0  0  0  0
   -5.5357   -0.8275   -1.8766 H   0  0  0  0  0  0  0  0  0  0  0  0
   -4.8308   -2.7164    1.5439 H   0  0  0  0  0  0  0  0  0  0  0  0
   -6.1169   -2.5111    0.3471 H   0  0  0  0  0  0  0  0  0  0  0  0
   -6.6470   -0.3885    1.4152 H   0  0  0  0  0  0  0  0  0  0  0  0
   -6.4197   -2.5646    3.4044 H   0  0  0  0  0  0  0  0  0  0  0  0
   -7.7185   -2.4081    2.2177 H   0  0  0  0  0  0  0  0  0  0  0  0
   -5.9187   -0.2346    4.7623 H   0  0  0  0  0  0  0  0  0  0  0  0
   -7.1056    1.3194    6.2964 H   0  0  0  0  0  0  0  0  0  0  0  0
   -9.6971   -1.3697    2.9790 H   0  0  0  0  0  0  0  0  0  0  0  0
  -12.1428    1.4667    5.9333 H   0  0  0  0  0  0  0  0  0  0  0  0
  -11.3228    2.3705    4.6477 H   0  0  0  0  0  0  0  0  0  0  0  0
  -10.1551    1.2411    7.2183 H   0  0  0  0  0  0  0  0  0  0  0  0
   -9.6927    2.7289    6.3299 H   0  0  0  0  0  0  0  0  0  0  0  0
   -1.3470   -1.3749   -2.4879 H   0  0  0  0  0  0  0  0  0  0  0  0
  1  2  1  0  0  0  0
  1  6  2  0  0  0  0
  1 28  1  0  0  0  0
  2  3  2  0  0  0  0
  2 29  1  0  0  0  0
  3  4  1  0  0  0  0
  3 30  1  0  0  0  0
  4  5  2  0  0  0  0
  4  7  1  0  0  0  0
  5  6  1  0  0  0  0
  5 31  1  0  0  0  0
  6 32  1  0  0  0  0
  7  8  1  0  0  0  0
  7 12  1  0  0  0  0
  7 33  1  0  0  0  0
  8  9  1  0  0  0  0
  8 11  1  0  0  0  0
  8 25  1  0  0  0  0
  9 10  1  0  0  0  0
  9 34  1  0  0  0  0
  9 35  1  0  0  0  0
 10 11  1  0  0  0  0
 10 12  1  0  0  0  0
 10 13  1  0  0  0  0
 11 36  1  0  0  0  0
 11 37  1  0  0  0  0
 13 14  1  0  0  0  0
 13 38  1  0  0  0  0
 13 39  1  0  0  0  0
 14 15  1  0  0  0  0
 14 40  1  0  0  0  0
 15 16  1  0  0  0  0
 15 41  1  0  0  0  0
 15 42  1  0  0  0  0
 16 17  1  0  0  0  0
 16 21  2  0  0  0  0
 17 18  2  0  0  0  0
 17 43  1  0  0  0  0
 18 19  1  0  0  0  0
 18 44  1  0  0  0  0
 19 20  2  0  0  0  0
 19 24  1  0  0  0  0
 20 21  1  0  0  0  0
 20 22  1  0  0  0  0
 21 45  1  0  0  0  0
 22 23  1  0  0  0  0
 23 24  1  0  0  0  0
 23 46  1  0  0  0  0
 23 47  1  0  0  0  0
 24 48  1  0  0  0  0
 24 49  1  0  0  0  0
 25 26  2  0  0  0  0
 25 27  1  0  0  0  0
 27 50  1  0  0  0  0
M  END
$$$$
