
 OpenBabel07202414143D

 49 52  0  0  1  0  0  0  0  0999 V2000
    1.0497   -0.1542    0.0837 C   0  0  0  0  0  0  0  0  0  0  0  0
    2.4877   -0.2269    0.1159 N   0  0  0  0  0  0  0  0  0  0  0  0
    3.1525   -1.2563   -0.5113 C   0  0  0  0  0  0  0  0  0  0  0  0
    2.5887   -2.1401   -1.1514 O   0  0  0  0  0  0  0  0  0  0  0  0
    4.6378   -1.2313   -0.4364 C   0  0  0  0  0  0  0  0  0  0  0  0
    5.3257   -0.6424    0.6324 C   0  0  0  0  0  0  0  0  0  0  0  0
    6.7239   -0.6408    0.6508 C   0  0  0  0  0  0  0  0  0  0  0  0
    7.4419   -1.2297   -0.3936 C   0  0  0  0  0  0  0  0  0  0  0  0
    6.7580   -1.8056   -1.4778 C   0  0  0  0  0  0  0  0  0  0  0  0
    5.3555   -1.8266   -1.4808 C   0  0  0  0  0  0  0  0  0  0  0  0
    7.5459   -2.3318   -2.6529 C   0  0  1  0  0  0  0  0  0  0  0  0
    7.9196   -1.2285   -3.6493 C   0  0  0  0  0  0  0  0  0  0  0  0
    9.0873   -1.0974   -4.0177 O   0  0  0  0  0  0  0  0  0  0  0  0
    6.8625   -0.4498   -4.1116 N   0  0  0  0  0  0  0  0  0  0  0  0
    6.9925    0.5951   -5.0760 C   0  0  0  0  0  0  0  0  0  0  0  0
    8.1439    0.7243   -5.8604 C   0  0  0  0  0  0  0  0  0  0  0  0
    8.3583    1.6837   -6.7863 N   0  0  0  0  0  0  0  0  0  0  0  0
    7.3689    2.5726   -6.9501 C   0  0  0  0  0  0  0  0  0  0  0  0
    6.1612    2.5530   -6.2580 C   0  0  0  0  0  0  0  0  0  0  0  0
    5.1854    3.5243   -6.5297 C   0  0  0  0  0  0  0  0  0  0  0  0
    3.9764    3.5278   -5.8453 C   0  0  0  0  0  0  0  0  0  0  0  0
    3.7369    2.5629   -4.8752 C   0  0  0  0  0  0  0  0  0  0  0  0
    4.7033    1.5868   -4.5941 C   0  0  0  0  0  0  0  0  0  0  0  0
    5.9450    1.5433   -5.2834 C   0  0  0  0  0  0  0  0  0  0  0  0
    8.8344   -2.9791   -2.1192 C   0  0  0  0  0  0  0  0  0  0  0  0
    9.5791   -2.0641   -1.2514 N   0  0  0  0  0  0  0  0  0  0  0  0
   11.0267   -2.0152   -1.3427 C   0  0  0  0  0  0  0  0  0  0  0  0
    8.9342   -1.2255   -0.3516 C   0  0  0  0  0  0  0  0  0  0  0  0
    9.5181   -0.4945    0.4409 O   0  0  0  0  0  0  0  0  0  0  0  0
    0.7346    0.7794    0.5544 H   0  0  0  0  0  0  0  0  0  0  0  0
    0.6390   -1.0074    0.6306 H   0  0  0  0  0  0  0  0  0  0  0  0
    0.7043   -0.1860   -0.9530 H   0  0  0  0  0  0  0  0  0  0  0  0
    3.0004    0.5626    0.4847 H   0  0  0  0  0  0  0  0  0  0  0  0
    4.7951   -0.2046    1.4724 H   0  0  0  0  0  0  0  0  0  0  0  0
    7.2551   -0.1833    1.4839 H   0  0  0  0  0  0  0  0  0  0  0  0
    4.8128   -2.2907   -2.3047 H   0  0  0  0  0  0  0  0  0  0  0  0
    6.9729   -3.0934   -3.1975 H   0  0  0  0  0  0  0  0  0  0  0  0
    5.9696   -0.5404   -3.6542 H   0  0  0  0  0  0  0  0  0  0  0  0
    8.9732    0.0282   -5.8103 H   0  0  0  0  0  0  0  0  0  0  0  0
    7.5845    3.3362   -7.6930 H   0  0  0  0  0  0  0  0  0  0  0  0
    5.3669    4.2880   -7.2841 H   0  0  0  0  0  0  0  0  0  0  0  0
    3.2292    4.2849   -6.0695 H   0  0  0  0  0  0  0  0  0  0  0  0
    2.7935    2.5709   -4.3335 H   0  0  0  0  0  0  0  0  0  0  0  0
    4.4617    0.8655   -3.8198 H   0  0  0  0  0  0  0  0  0  0  0  0
    9.4750   -3.3015   -2.9499 H   0  0  0  0  0  0  0  0  0  0  0  0
    8.6052   -3.8677   -1.5197 H   0  0  0  0  0  0  0  0  0  0  0  0
   11.4009   -2.7094   -2.0998 H   0  0  0  0  0  0  0  0  0  0  0  0
   11.4569   -2.2667   -0.3695 H   0  0  0  0  0  0  0  0  0  0  0  0
   11.3284   -0.9962   -1.6072 H   0  0  0  0  0  0  0  0  0  0  0  0
  1  2  1  0  0  0  0
  1 30  1  0  0  0  0
  1 31  1  0  0  0  0
  1 32  1  0  0  0  0
  2  3  1  0  0  0  0
  2 33  1  0  0  0  0
  3  4  2  0  0  0  0
  3  5  1  0  0  0  0
  5  6  1  0  0  0  0
  5 10  2  0  0  0  0
  6  7  2  0  0  0  0
  6 34  1  0  0  0  0
  7  8  1  0  0  0  0
  7 35  1  0  0  0  0
  8  9  2  0  0  0  0
  8 28  1  0  0  0  0
  9 10  1  0  0  0  0
  9 11  1  0  0  0  0
 10 36  1  0  0  0  0
 11 25  1  0  0  0  0
 11 12  1  0  0  0  0
 11 37  1  6  0  0  0
 12 13  2  0  0  0  0
 12 14  1  0  0  0  0
 14 15  1  0  0  0  0
 14 38  1  0  0  0  0
 15 16  1  0  0  0  0
 15 24  2  0  0  0  0
 16 17  2  0  0  0  0
 16 39  1  0  0  0  0
 17 18  1  0  0  0  0
 18 19  2  0  0  0  0
 18 40  1  0  0  0  0
 19 20  1  0  0  0  0
 19 24  1  0  0  0  0
 20 21  2  0  0  0  0
 20 41  1  0  0  0  0
 21 22  1  0  0  0  0
 21 42  1  0  0  0  0
 22 23  2  0  0  0  0
 22 43  1  0  0  0  0
 23 24  1  0  0  0  0
 23 44  1  0  0  0  0
 25 26  1  0  0  0  0
 25 45  1  0  0  0  0
 25 46  1  0  0  0  0
 26 27  1  0  0  0  0
 26 28  1  0  0  0  0
 27 47  1  0  0  0  0
 27 48  1  0  0  0  0
 27 49  1  0  0  0  0
 28 29  2  0  0  0  0
M  END
$$$$
