
 OpenBabel07202414163D

 43 45  0  0  1  0  0  0  0  0999 V2000
   -4.9232    3.9756   -4.5981 C   0  0  0  0  0  0  0  0  0  0  0  0
   -3.4862    3.5412   -4.6885 C   0  0  0  0  0  0  0  0  0  0  0  0
   -2.9276    3.3864   -5.9689 C   0  0  0  0  0  0  0  0  0  0  0  0
   -1.5940    3.0360   -6.0923 C   0  0  0  0  0  0  0  0  0  0  0  0
   -0.7865    2.8195   -5.0415 N   0  0  0  0  0  0  0  0  0  0  0  0
   -1.3324    2.9911   -3.8102 C   0  0  0  0  0  0  0  0  0  0  0  0
   -2.6574    3.3647   -3.5637 C   0  0  0  0  0  0  0  0  0  0  0  0
   -3.1763    3.5652   -2.2562 N   0  0  0  0  0  0  0  0  0  0  0  0
   -2.4354    3.6655   -1.0927 C   0  0  0  0  0  0  0  0  0  0  0  0
   -1.2050    3.6412   -1.0408 O   0  0  0  0  0  0  0  0  0  0  0  0
   -3.2043    3.8901    0.2050 C   0  0  0  0  0  0  0  0  0  0  0  0
   -4.6980    3.6892    0.1708 C   0  0  0  0  0  0  0  0  0  0  0  0
   -5.5607    4.7784    0.0027 C   0  0  0  0  0  0  0  0  0  0  0  0
   -6.9378    4.5736   -0.0252 C   0  0  0  0  0  0  0  0  0  0  0  0
   -7.9900    5.9180   -0.2362 Cl  0  0  0  0  0  0  0  0  0  0  0  0
   -7.4702    3.2893    0.1014 C   0  0  0  0  0  0  0  0  0  0  0  0
   -6.6249    2.1824    0.2444 C   0  0  0  0  0  0  0  0  0  0  0  0
   -7.1829    0.8912    0.3824 N   0  0  0  0  0  0  0  0  0  0  0  0
   -6.4173   -0.2889   -0.0294 C   0  0  3  0  0  0  0  0  0  0  0  0
   -6.1132   -0.5013   -1.4873 C   0  0  0  0  0  0  0  0  0  0  0  0
   -7.0124   -1.4727   -0.7602 C   0  0  3  0  0  0  0  0  0  0  0  0
   -8.4590   -1.5932   -1.0618 C   0  0  0  0  0  0  0  0  0  0  0  0
   -9.1829   -0.5752   -0.5361 F   0  0  0  0  0  0  0  0  0  0  0  0
   -8.6782   -1.6075   -2.3956 F   0  0  0  0  0  0  0  0  0  0  0  0
   -8.9480   -2.7469   -0.5515 F   0  0  0  0  0  0  0  0  0  0  0  0
   -5.2417    2.4014    0.2982 C   0  0  0  0  0  0  0  0  0  0  0  0
   -5.4384    3.8420   -5.5570 H   0  0  0  0  0  0  0  0  0  0  0  0
   -4.9761    5.0361   -4.3332 H   0  0  0  0  0  0  0  0  0  0  0  0
   -5.4735    3.3821   -3.8626 H   0  0  0  0  0  0  0  0  0  0  0  0
   -3.5161    3.5498   -6.8667 H   0  0  0  0  0  0  0  0  0  0  0  0
   -1.1282    2.9235   -7.0669 H   0  0  0  0  0  0  0  0  0  0  0  0
   -0.6278    2.7886   -3.0110 H   0  0  0  0  0  0  0  0  0  0  0  0
   -4.1727    3.7218   -2.1872 H   0  0  0  0  0  0  0  0  0  0  0  0
   -2.9782    4.9071    0.5496 H   0  0  0  0  0  0  0  0  0  0  0  0
   -2.7805    3.2094    0.9553 H   0  0  0  0  0  0  0  0  0  0  0  0
   -5.1621    5.7868   -0.0909 H   0  0  0  0  0  0  0  0  0  0  0  0
   -8.5472    3.1555    0.0786 H   0  0  0  0  0  0  0  0  0  0  0  0
   -8.1912    0.8759    0.2138 H   0  0  0  0  0  0  0  0  0  0  0  0
   -5.6511   -0.5464    0.6979 H   0  0  0  0  0  0  0  0  0  0  0  0
   -5.1066   -0.8170   -1.7385 H   0  0  0  0  0  0  0  0  0  0  0  0
   -6.5517    0.1792   -2.2062 H   0  0  0  0  0  0  0  0  0  0  0  0
   -6.5904   -2.4544   -0.5789 H   0  0  0  0  0  0  0  0  0  0  0  0
   -4.5687    1.5596    0.4541 H   0  0  0  0  0  0  0  0  0  0  0  0
  1  2  1  0  0  0  0
  1 27  1  0  0  0  0
  1 28  1  0  0  0  0
  1 29  1  0  0  0  0
  2  3  1  0  0  0  0
  2  7  2  0  0  0  0
  3  4  2  0  0  0  0
  3 30  1  0  0  0  0
  4  5  1  0  0  0  0
  4 31  1  0  0  0  0
  5  6  2  0  0  0  0
  6  7  1  0  0  0  0
  6 32  1  0  0  0  0
  7  8  1  0  0  0  0
  8  9  1  0  0  0  0
  8 33  1  0  0  0  0
  9 10  2  0  0  0  0
  9 11  1  0  0  0  0
 11 12  1  0  0  0  0
 11 34  1  0  0  0  0
 11 35  1  0  0  0  0
 12 13  1  0  0  0  0
 12 26  2  0  0  0  0
 13 14  2  0  0  0  0
 13 36  1  0  0  0  0
 14 15  1  0  0  0  0
 14 16  1  0  0  0  0
 16 17  2  0  0  0  0
 16 37  1  0  0  0  0
 17 18  1  0  0  0  0
 17 26  1  0  0  0  0
 18 19  1  0  0  0  0
 18 38  1  0  0  0  0
 19 20  1  0  0  0  0
 19 21  1  0  0  0  0
 19 39  1  0  0  0  0
 20 21  1  0  0  0  0
 20 40  1  0  0  0  0
 20 41  1  0  0  0  0
 21 22  1  0  0  0  0
 21 42  1  0  0  0  0
 22 23  1  0  0  0  0
 22 24  1  0  0  0  0
 22 25  1  0  0  0  0
 26 43  1  0  0  0  0
M  END
$$$$
