
 OpenBabel07202414133D

 69 71  0  0  0  0  0  0  0  0999 V2000
   -1.0072    5.0567    2.8767 C   0  0  0  0  0  0  0  0  0  0  0  0
    0.4977    5.0783    2.5989 C   0  0  0  0  0  0  0  0  0  0  0  0
    0.7636    6.2164    1.6139 C   0  0  0  0  0  0  0  0  0  0  0  0
    2.1913    6.5109    1.1721 C   0  0  0  0  0  0  0  0  0  0  0  0
    2.9339    5.4861    0.4198 N   0  0  0  0  0  0  0  0  0  0  0  0
    2.2924    4.4619   -0.4344 C   0  0  0  0  0  0  0  0  0  0  0  0
    2.1688    4.8725   -1.9081 C   0  0  0  0  0  0  0  0  0  0  0  0
    1.5668    3.7813   -2.8134 C   0  0  0  0  0  0  0  0  0  0  0  0
    0.2075    3.4287   -2.4323 N   0  0  0  0  0  0  0  0  0  0  0  0
   -0.8069    4.2403   -2.8910 C   0  0  0  0  0  0  0  0  0  0  0  0
   -0.5745    5.2192   -3.5766 O   0  0  0  0  0  0  0  0  0  0  0  0
   -2.0647    3.8473   -2.4658 N   0  0  0  0  0  0  0  0  0  0  0  0
   -3.2214    4.4842   -2.8842 C   0  0  0  0  0  0  0  0  0  0  0  0
   -3.2972    5.0533   -4.1023 C   0  0  0  0  0  0  0  0  0  0  0  0
   -4.3961    5.7216   -4.5980 N   0  0  0  0  0  0  0  0  0  0  0  0
   -5.5443    5.9073   -3.8368 C   0  0  0  0  0  0  0  0  0  0  0  0
   -6.5386    6.5109   -4.2333 O   0  0  0  0  0  0  0  0  0  0  0  0
   -5.5434    5.2913   -2.4776 C   0  0  0  0  0  0  0  0  0  0  0  0
   -4.4261    4.5646   -2.0217 C   0  0  0  0  0  0  0  0  0  0  0  0
   -4.5249    3.9651   -0.7551 C   0  0  0  0  0  0  0  0  0  0  0  0
   -5.6932    4.1008    0.0207 C   0  0  0  0  0  0  0  0  0  0  0  0
   -6.7727    4.8528   -0.4426 C   0  0  0  0  0  0  0  0  0  0  0  0
   -6.6943    5.4552   -1.6873 C   0  0  0  0  0  0  0  0  0  0  0  0
   -4.3655    6.1639   -5.9976 C   0  0  0  0  0  0  0  0  0  0  0  0
   -3.8479    7.5931   -6.2528 C   0  0  0  0  0  0  0  0  0  0  0  0
   -4.6981    8.6686   -5.5808 C   0  0  0  0  0  0  0  0  0  0  0  0
   -2.3818    7.7690   -5.8595 C   0  0  0  0  0  0  0  0  0  0  0  0
    4.3038    5.7478    0.2370 C   0  0  0  0  0  0  0  0  0  0  0  0
    5.2220    4.6937    0.1143 C   0  0  0  0  0  0  0  0  0  0  0  0
    6.6000    4.9176    0.0220 C   0  0  0  0  0  0  0  0  0  0  0  0
    7.1005    6.2144    0.0263 C   0  0  0  0  0  0  0  0  0  0  0  0
    6.2203    7.2828    0.1182 C   0  0  0  0  0  0  0  0  0  0  0  0
    4.8427    7.0463    0.2273 C   0  0  0  0  0  0  0  0  0  0  0  0
   -1.2855    4.2449    3.5530 H   0  0  0  0  0  0  0  0  0  0  0  0
   -1.5661    4.9300    1.9422 H   0  0  0  0  0  0  0  0  0  0  0  0
   -1.3311    6.0027    3.3270 H   0  0  0  0  0  0  0  0  0  0  0  0
    0.8062    4.1130    2.1870 H   0  0  0  0  0  0  0  0  0  0  0  0
    1.0412    5.2233    3.5405 H   0  0  0  0  0  0  0  0  0  0  0  0
    0.4050    7.1345    2.1033 H   0  0  0  0  0  0  0  0  0  0  0  0
    0.1387    6.0782    0.7269 H   0  0  0  0  0  0  0  0  0  0  0  0
    2.7649    6.7727    2.0737 H   0  0  0  0  0  0  0  0  0  0  0  0
    2.1235    7.4222    0.5636 H   0  0  0  0  0  0  0  0  0  0  0  0
    1.3057    4.2044   -0.0404 H   0  0  0  0  0  0  0  0  0  0  0  0
    2.8574    3.5244   -0.3824 H   0  0  0  0  0  0  0  0  0  0  0  0
    3.1551    5.1207   -2.3154 H   0  0  0  0  0  0  0  0  0  0  0  0
    1.5564    5.7775   -1.9770 H   0  0  0  0  0  0  0  0  0  0  0  0
    2.1703    2.8686   -2.8368 H   0  0  0  0  0  0  0  0  0  0  0  0
    1.5500    4.1623   -3.8451 H   0  0  0  0  0  0  0  0  0  0  0  0
   -0.0013    2.4733   -2.1805 H   0  0  0  0  0  0  0  0  0  0  0  0
   -2.0936    3.2714   -1.6405 H   0  0  0  0  0  0  0  0  0  0  0  0
   -2.4623    5.0011   -4.7941 H   0  0  0  0  0  0  0  0  0  0  0  0
   -3.7136    3.3957   -0.3248 H   0  0  0  0  0  0  0  0  0  0  0  0
   -5.7470    3.6313    0.9994 H   0  0  0  0  0  0  0  0  0  0  0  0
   -7.6715    4.9700    0.1614 H   0  0  0  0  0  0  0  0  0  0  0  0
   -7.5334    6.0535   -2.0504 H   0  0  0  0  0  0  0  0  0  0  0  0
   -5.3795    6.0694   -6.4038 H   0  0  0  0  0  0  0  0  0  0  0  0
   -3.7526    5.4519   -6.5668 H   0  0  0  0  0  0  0  0  0  0  0  0
   -3.9116    7.7562   -7.3374 H   0  0  0  0  0  0  0  0  0  0  0  0
   -4.5927    8.6356   -4.4923 H   0  0  0  0  0  0  0  0  0  0  0  0
   -5.7565    8.5529   -5.8338 H   0  0  0  0  0  0  0  0  0  0  0  0
   -4.3869    9.6651   -5.9133 H   0  0  0  0  0  0  0  0  0  0  0  0
   -2.2458    7.6882   -4.7767 H   0  0  0  0  0  0  0  0  0  0  0  0
   -2.0182    8.7564   -6.1650 H   0  0  0  0  0  0  0  0  0  0  0  0
   -1.7512    7.0175   -6.3455 H   0  0  0  0  0  0  0  0  0  0  0  0
    4.8828    3.6631    0.1459 H   0  0  0  0  0  0  0  0  0  0  0  0
    7.2778    4.0704   -0.0344 H   0  0  0  0  0  0  0  0  0  0  0  0
    8.1701    6.3873   -0.0365 H   0  0  0  0  0  0  0  0  0  0  0  0
    6.5973    8.3034    0.1093 H   0  0  0  0  0  0  0  0  0  0  0  0
    4.1990    7.9235    0.2900 H   0  0  0  0  0  0  0  0  0  0  0  0
  1  2  1  0  0  0  0
  1 34  1  0  0  0  0
  1 35  1  0  0  0  0
  1 36  1  0  0  0  0
  2  3  1  0  0  0  0
  2 37  1  0  0  0  0
  2 38  1  0  0  0  0
  3  4  1  0  0  0  0
  3 39  1  0  0  0  0
  3 40  1  0  0  0  0
  4  5  1  0  0  0  0
  4 41  1  0  0  0  0
  4 42  1  0  0  0  0
  5  6  1  0  0  0  0
  5 28  1  0  0  0  0
  6  7  1  0  0  0  0
  6 43  1  0  0  0  0
  6 44  1  0  0  0  0
  7  8  1  0  0  0  0
  7 45  1  0  0  0  0
  7 46  1  0  0  0  0
  8  9  1  0  0  0  0
  8 47  1  0  0  0  0
  8 48  1  0  0  0  0
  9 10  1  0  0  0  0
  9 49  1  0  0  0  0
 10 11  2  0  0  0  0
 10 12  1  0  0  0  0
 12 13  1  0  0  0  0
 12 50  1  0  0  0  0
 13 14  2  0  0  0  0
 13 19  1  0  0  0  0
 14 15  1  0  0  0  0
 14 51  1  0  0  0  0
 15 16  1  0  0  0  0
 15 24  1  0  0  0  0
 16 17  2  0  0  0  0
 16 18  1  0  0  0  0
 18 19  1  0  0  0  0
 18 23  2  0  0  0  0
 19 20  2  0  0  0  0
 20 21  1  0  0  0  0
 20 52  1  0  0  0  0
 21 22  2  0  0  0  0
 21 53  1  0  0  0  0
 22 23  1  0  0  0  0
 22 54  1  0  0  0  0
 23 55  1  0  0  0  0
 24 25  1  0  0  0  0
 24 56  1  0  0  0  0
 24 57  1  0  0  0  0
 25 26  1  0  0  0  0
 25 27  1  0  0  0  0
 25 58  1  0  0  0  0
 26 59  1  0  0  0  0
 26 60  1  0  0  0  0
 26 61  1  0  0  0  0
 27 62  1  0  0  0  0
 27 63  1  0  0  0  0
 27 64  1  0  0  0  0
 28 29  1  0  0  0  0
 28 33  2  0  0  0  0
 29 30  2  0  0  0  0
 29 65  1  0  0  0  0
 30 31  1  0  0  0  0
 30 66  1  0  0  0  0
 31 32  2  0  0  0  0
 31 67  1  0  0  0  0
 32 33  1  0  0  0  0
 32 68  1  0  0  0  0
 33 69  1  0  0  0  0
M  END
$$$$
