
 OpenBabel07202414143D

 50 53  0  0  1  0  0  0  0  0999 V2000
    5.5692   -2.3617   -0.6849 C   0  0  0  0  0  0  0  0  0  0  0  0
    4.9713   -1.1317   -0.2285 N   0  0  0  0  0  0  0  0  0  0  0  0
    5.5474    0.0840   -0.5446 C   0  0  0  0  0  0  0  0  0  0  0  0
    6.5918    0.1623   -1.1843 O   0  0  0  0  0  0  0  0  0  0  0  0
    4.7447    1.2938   -0.0344 C   0  0  0  0  0  0  0  0  0  0  0  0
    5.3057    2.6064   -0.4596 N   0  0  0  0  0  0  0  0  0  0  0  0
    6.6178    2.8727    0.1810 C   0  0  0  0  0  0  0  0  0  0  0  0
    7.2418    4.1937   -0.3203 C   0  0  3  0  0  0  0  0  0  0  0  0
    7.8300    4.1182   -1.7454 C   0  0  0  0  0  0  0  0  0  0  0  0
    8.8025    4.8094   -2.0512 O   0  0  0  0  0  0  0  0  0  0  0  0
    7.1389    3.2918   -2.6107 N   0  0  0  0  0  0  0  0  0  0  0  0
    7.3283    3.1039   -4.0029 C   0  0  0  0  0  0  0  0  0  0  0  0
    8.2659    3.8196   -4.7472 C   0  0  0  0  0  0  0  0  0  0  0  0
    8.3646    3.7803   -6.0989 N   0  0  0  0  0  0  0  0  0  0  0  0
    7.5261    2.9440   -6.7436 C   0  0  0  0  0  0  0  0  0  0  0  0
    6.6295    2.0839   -6.1139 C   0  0  0  0  0  0  0  0  0  0  0  0
    5.8812    1.1423   -6.8484 C   0  0  0  0  0  0  0  0  0  0  0  0
    5.0276    0.2574   -6.1971 C   0  0  0  0  0  0  0  0  0  0  0  0
    4.1877   -0.9494   -7.0885 Cl  0  0  0  0  0  0  0  0  0  0  0  0
    4.8687    0.3304   -4.8235 C   0  0  0  0  0  0  0  0  0  0  0  0
    5.5864    1.2844   -4.0981 C   0  0  0  0  0  0  0  0  0  0  0  0
    6.5097    2.1694   -4.7075 C   0  0  0  0  0  0  0  0  0  0  0  0
    6.2599    5.3404   -0.1768 C   0  0  0  0  0  0  0  0  0  0  0  0
    6.7225    6.6641   -0.0863 C   0  0  0  0  0  0  0  0  0  0  0  0
    5.8198    7.7140    0.0721 C   0  0  0  0  0  0  0  0  0  0  0  0
    6.3979    9.3271    0.2287 Cl  0  0  0  0  0  0  0  0  0  0  0  0
    4.4517    7.4646    0.1238 C   0  0  0  0  0  0  0  0  0  0  0  0
    3.9835    6.1529    0.0296 C   0  0  0  0  0  0  0  0  0  0  0  0
    4.8792    5.0796   -0.1163 C   0  0  0  0  0  0  0  0  0  0  0  0
    4.3381    3.6654   -0.0864 C   0  0  0  0  0  0  0  0  0  0  0  0
    5.0122   -3.2033   -0.2679 H   0  0  0  0  0  0  0  0  0  0  0  0
    6.6115   -2.4017   -0.3572 H   0  0  0  0  0  0  0  0  0  0  0  0
    5.5314   -2.3930   -1.7777 H   0  0  0  0  0  0  0  0  0  0  0  0
    4.0892   -1.1703    0.2658 H   0  0  0  0  0  0  0  0  0  0  0  0
    4.6689    1.2287    1.0576 H   0  0  0  0  0  0  0  0  0  0  0  0
    3.7354    1.1901   -0.4563 H   0  0  0  0  0  0  0  0  0  0  0  0
    7.3309    2.0706   -0.0302 H   0  0  0  0  0  0  0  0  0  0  0  0
    6.4973    2.9087    1.2719 H   0  0  0  0  0  0  0  0  0  0  0  0
    8.0957    4.3892    0.3438 H   0  0  0  0  0  0  0  0  0  0  0  0
    6.3635    2.7896   -2.1847 H   0  0  0  0  0  0  0  0  0  0  0  0
    8.9907    4.4819   -4.2861 H   0  0  0  0  0  0  0  0  0  0  0  0
    7.6089    2.9775   -7.8273 H   0  0  0  0  0  0  0  0  0  0  0  0
    5.9950    1.0746   -7.9278 H   0  0  0  0  0  0  0  0  0  0  0  0
    4.2116   -0.3579   -4.2992 H   0  0  0  0  0  0  0  0  0  0  0  0
    5.4394    1.2883   -3.0267 H   0  0  0  0  0  0  0  0  0  0  0  0
    7.7903    6.8726   -0.1285 H   0  0  0  0  0  0  0  0  0  0  0  0
    3.7478    8.2830    0.2499 H   0  0  0  0  0  0  0  0  0  0  0  0
    2.9122    5.9707    0.0918 H   0  0  0  0  0  0  0  0  0  0  0  0
    3.4867    3.6083   -0.7766 H   0  0  0  0  0  0  0  0  0  0  0  0
    3.9620    3.4938    0.9316 H   0  0  0  0  0  0  0  0  0  0  0  0
  1  2  1  0  0  0  0
  1 31  1  0  0  0  0
  1 32  1  0  0  0  0
  1 33  1  0  0  0  0
  2  3  1  0  0  0  0
  2 34  1  0  0  0  0
  3  4  2  0  0  0  0
  3  5  1  0  0  0  0
  5  6  1  0  0  0  0
  5 35  1  0  0  0  0
  5 36  1  0  0  0  0
  6  7  1  0  0  0  0
  6 30  1  0  0  0  0
  7  8  1  0  0  0  0
  7 37  1  0  0  0  0
  7 38  1  0  0  0  0
  8  9  1  0  0  0  0
  8 23  1  0  0  0  0
  8 39  1  0  0  0  0
  9 10  2  0  0  0  0
  9 11  1  0  0  0  0
 11 12  1  0  0  0  0
 11 40  1  0  0  0  0
 12 13  1  0  0  0  0
 12 22  2  0  0  0  0
 13 14  2  0  0  0  0
 13 41  1  0  0  0  0
 14 15  1  0  0  0  0
 15 16  2  0  0  0  0
 15 42  1  0  0  0  0
 16 17  1  0  0  0  0
 16 22  1  0  0  0  0
 17 18  2  0  0  0  0
 17 43  1  0  0  0  0
 18 19  1  0  0  0  0
 18 20  1  0  0  0  0
 20 21  2  0  0  0  0
 20 44  1  0  0  0  0
 21 22  1  0  0  0  0
 21 45  1  0  0  0  0
 23 24  1  0  0  0  0
 23 29  2  0  0  0  0
 24 25  2  0  0  0  0
 24 46  1  0  0  0  0
 25 26  1  0  0  0  0
 25 27  1  0  0  0  0
 27 28  2  0  0  0  0
 27 47  1  0  0  0  0
 28 29  1  0  0  0  0
 28 48  1  0  0  0  0
 29 30  1  0  0  0  0
 30 49  1  0  0  0  0
 30 50  1  0  0  0  0
M  END
$$$$
