
 OpenBabel07202414143D

 52 55  0  0  0  0  0  0  0  0999 V2000
    8.1118    6.5302    0.8546 C   0  0  0  0  0  0  0  0  0  0  0  0
    8.4753    5.9112    2.0834 O   0  0  0  0  0  0  0  0  0  0  0  0
    7.6419    4.9449    2.5657 C   0  0  0  0  0  0  0  0  0  0  0  0
    6.4600    4.5150    1.9792 C   0  0  0  0  0  0  0  0  0  0  0  0
    5.7317    3.4870    2.5942 C   0  0  0  0  0  0  0  0  0  0  0  0
    4.4847    3.0864    1.9598 N   0  3  0  0  0  0  0  0  0  0  0  0
    3.6496    3.9768    1.7459 O   0  5  0  0  0  0  0  0  0  0  0  0
    4.3752    1.8951    1.6395 O   0  0  0  0  0  0  0  0  0  0  0  0
    6.1405    2.8645    3.7865 C   0  0  0  0  0  0  0  0  0  0  0  0
    5.4238    1.8065    4.3832 N   0  0  0  0  0  0  0  0  0  0  0  0
    5.1962    1.5168    5.7432 C   0  0  0  0  0  0  0  0  0  0  0  0
    5.0645    0.1805    6.1633 C   0  0  0  0  0  0  0  0  0  0  0  0
    4.7927   -0.1455    7.5055 C   0  0  0  0  0  0  0  0  0  0  0  0
    4.5308   -1.5773    7.9297 C   0  0  0  0  0  0  0  0  0  0  0  0
    5.6585   -2.5903    7.7877 C   0  0  0  0  0  0  0  0  0  0  0  0
    5.4156   -3.7944    7.8572 O   0  0  0  0  0  0  0  0  0  0  0  0
    6.9281   -2.0645    7.6726 N   0  0  0  0  0  0  0  0  0  0  0  0
    8.0899   -2.8692    7.5589 C   0  0  0  0  0  0  0  0  0  0  0  0
    9.1174   -2.6406    8.4771 C   0  0  0  0  0  0  0  0  0  0  0  0
   10.3121   -3.2623    8.4647 N   0  0  0  0  0  0  0  0  0  0  0  0
   10.5460   -4.0603    7.4037 C   0  0  0  0  0  0  0  0  0  0  0  0
    9.6564   -4.2558    6.3462 C   0  0  0  0  0  0  0  0  0  0  0  0
   10.0745   -4.8865    5.1613 C   0  0  0  0  0  0  0  0  0  0  0  0
    9.1853   -5.0824    4.1090 C   0  0  0  0  0  0  0  0  0  0  0  0
    7.8506   -4.7350    4.2687 C   0  0  0  0  0  0  0  0  0  0  0  0
    7.4347   -4.0714    5.4284 C   0  0  0  0  0  0  0  0  0  0  0  0
    8.3446   -3.7419    6.4653 C   0  0  0  0  0  0  0  0  0  0  0  0
    4.6722    0.8945    8.4375 C   0  0  0  0  0  0  0  0  0  0  0  0
    4.8215    2.2204    8.0325 C   0  0  0  0  0  0  0  0  0  0  0  0
    4.6243    3.4875    9.1811 Cl  0  0  0  0  0  0  0  0  0  0  0  0
    5.0924    2.5317    6.7015 C   0  0  0  0  0  0  0  0  0  0  0  0
    7.3234    3.3354    4.3812 C   0  0  0  0  0  0  0  0  0  0  0  0
    8.0525    4.3651    3.7730 C   0  0  0  0  0  0  0  0  0  0  0  0
    8.8970    7.2474    0.5939 H   0  0  0  0  0  0  0  0  0  0  0  0
    7.1736    7.0840    0.9585 H   0  0  0  0  0  0  0  0  0  0  0  0
    8.0511    5.7973    0.0420 H   0  0  0  0  0  0  0  0  0  0  0  0
    6.0865    4.9510    1.0561 H   0  0  0  0  0  0  0  0  0  0  0  0
    5.2022    1.0466    3.7391 H   0  0  0  0  0  0  0  0  0  0  0  0
    5.1582   -0.6196    5.4302 H   0  0  0  0  0  0  0  0  0  0  0  0
    3.6857   -1.9461    7.3354 H   0  0  0  0  0  0  0  0  0  0  0  0
    4.2162   -1.6008    8.9807 H   0  0  0  0  0  0  0  0  0  0  0  0
    7.0546   -1.1687    8.1299 H   0  0  0  0  0  0  0  0  0  0  0  0
    8.9958   -1.9275    9.2867 H   0  0  0  0  0  0  0  0  0  0  0  0
   11.5192   -4.5453    7.4149 H   0  0  0  0  0  0  0  0  0  0  0  0
   11.1165   -5.1717    5.0298 H   0  0  0  0  0  0  0  0  0  0  0  0
    9.5333   -5.5097    3.1721 H   0  0  0  0  0  0  0  0  0  0  0  0
    7.1345   -4.9528    3.4802 H   0  0  0  0  0  0  0  0  0  0  0  0
    6.3845   -3.8058    5.5088 H   0  0  0  0  0  0  0  0  0  0  0  0
    4.4296    0.6805    9.4766 H   0  0  0  0  0  0  0  0  0  0  0  0
    5.1658    3.5747    6.4033 H   0  0  0  0  0  0  0  0  0  0  0  0
    7.6935    2.9071    5.3017 H   0  0  0  0  0  0  0  0  0  0  0  0
    8.9764    4.7092    4.2360 H   0  0  0  0  0  0  0  0  0  0  0  0
  1  2  1  0  0  0  0
  1 34  1  0  0  0  0
  1 35  1  0  0  0  0
  1 36  1  0  0  0  0
  2  3  1  0  0  0  0
  3  4  2  0  0  0  0
  3 33  1  0  0  0  0
  4  5  1  0  0  0  0
  4 37  1  0  0  0  0
  5  6  1  0  0  0  0
  5  9  2  0  0  0  0
  6  7  1  0  0  0  0
  6  8  2  0  0  0  0
  9 10  1  0  0  0  0
  9 32  1  0  0  0  0
 10 11  1  0  0  0  0
 10 38  1  0  0  0  0
 11 12  2  0  0  0  0
 11 31  1  0  0  0  0
 12 13  1  0  0  0  0
 12 39  1  0  0  0  0
 13 14  1  0  0  0  0
 13 28  2  0  0  0  0
 14 15  1  0  0  0  0
 14 40  1  0  0  0  0
 14 41  1  0  0  0  0
 15 16  2  0  0  0  0
 15 17  1  0  0  0  0
 17 18  1  0  0  0  0
 17 42  1  0  0  0  0
 18 19  2  0  0  0  0
 18 27  1  0  0  0  0
 19 20  1  0  0  0  0
 19 43  1  0  0  0  0
 20 21  2  0  0  0  0
 21 22  1  0  0  0  0
 21 44  1  0  0  0  0
 22 23  2  0  0  0  0
 22 27  1  0  0  0  0
 23 24  1  0  0  0  0
 23 45  1  0  0  0  0
 24 25  2  0  0  0  0
 24 46  1  0  0  0  0
 25 26  1  0  0  0  0
 25 47  1  0  0  0  0
 26 27  2  0  0  0  0
 26 48  1  0  0  0  0
 28 29  1  0  0  0  0
 28 49  1  0  0  0  0
 29 30  1  0  0  0  0
 29 31  2  0  0  0  0
 31 50  1  0  0  0  0
 32 33  2  0  0  0  0
 32 51  1  0  0  0  0
 33 52  1  0  0  0  0
M  CHG  2   6   1   7  -1
M  END
$$$$
