
 OpenBabel07202414123D

 64 65  0  0  1  0  0  0  0  0999 V2000
    2.7069    1.2642   -0.7675 C   0  0  0  0  0  0  0  0  0  0  0  0
    2.2973    0.0196    0.0170 C   0  0  0  0  0  0  0  0  0  0  0  0
    0.7710   -0.1345   -0.0597 C   0  0  0  0  0  0  0  0  0  0  0  0
    3.0218   -1.2533   -0.4756 C   0  0  0  0  0  0  0  0  0  0  0  0
    4.5629   -1.2867   -0.2849 C   0  0  1  0  0  0  0  0  0  0  0  0
    4.8943   -1.0879    1.2183 C   0  0  0  0  0  0  0  0  0  0  0  0
    4.6975   -1.9583    2.0677 O   0  0  0  0  0  0  0  0  0  0  0  0
    5.3325    0.1847    1.5441 N   0  0  0  0  0  0  0  0  0  0  0  0
    5.7227    0.5726    2.9147 C   0  0  1  0  0  0  0  0  0  0  0  0
    7.1231    0.0163    3.2715 C   0  0  0  0  0  0  0  0  0  0  0  0
    8.3379    0.6346    2.5620 C   0  0  3  0  0  0  0  0  0  0  0  0
    9.6534    0.0255    3.0895 C   0  0  0  0  0  0  0  0  0  0  0  0
   10.5406   -0.1036    1.8679 C   0  0  0  0  0  0  0  0  0  0  0  0
    9.6091   -0.2609    0.7976 N   0  0  0  0  0  0  0  0  0  0  0  0
    8.3975    0.3226    1.0801 C   0  0  0  0  0  0  0  0  0  0  0  0
    7.5431    0.6224    0.2614 O   0  0  0  0  0  0  0  0  0  0  0  0
    5.5273    2.1003    3.1301 C   0  0  3  0  0  0  0  0  0  0  0  0
    4.1708    2.4701    2.7467 O   0  0  0  0  0  0  0  0  0  0  0  0
    5.9088    2.5537    4.8647 S   0  0  0  0  0  0  0  0  0  0  0  0
    4.9999    1.8543    5.7469 O   0  0  0  0  0  0  0  0  0  0  0  0
    7.3346    2.5916    5.0919 O   0  0  0  0  0  0  0  0  0  0  0  0
    5.3796    4.0852    4.8266 O   0  0  0  0  0  0  0  0  0  0  0  0
    5.0745   -2.5800   -0.7501 N   0  0  0  0  0  0  0  0  0  0  0  0
    6.3729   -2.8439   -1.0440 C   0  0  0  0  0  0  0  0  0  0  0  0
    7.3112   -2.0767   -0.9122 O   0  0  0  0  0  0  0  0  0  0  0  0
    6.4567   -4.1082   -1.5280 O   0  0  0  0  0  0  0  0  0  0  0  0
    7.7451   -4.5108   -2.0204 C   0  0  0  0  0  0  0  0  0  0  0  0
    7.8604   -4.2026   -3.4940 C   0  0  0  0  0  0  0  0  0  0  0  0
    8.8350   -3.3129   -3.9666 C   0  0  0  0  0  0  0  0  0  0  0  0
    8.9209   -3.0136   -5.3282 C   0  0  0  0  0  0  0  0  0  0  0  0
    8.0348   -3.5993   -6.2306 C   0  0  0  0  0  0  0  0  0  0  0  0
    7.0656   -4.4901   -5.7737 C   0  0  0  0  0  0  0  0  0  0  0  0
    6.9802   -4.7926   -4.4134 C   0  0  0  0  0  0  0  0  0  0  0  0
    2.2175    2.1527   -0.3535 H   0  0  0  0  0  0  0  0  0  0  0  0
    2.4121    1.1807   -1.8197 H   0  0  0  0  0  0  0  0  0  0  0  0
    3.7855    1.4333   -0.7294 H   0  0  0  0  0  0  0  0  0  0  0  0
    2.5434    0.1730    1.0738 H   0  0  0  0  0  0  0  0  0  0  0  0
    0.3955    0.0288   -1.0759 H   0  0  0  0  0  0  0  0  0  0  0  0
    0.2889    0.6060    0.5900 H   0  0  0  0  0  0  0  0  0  0  0  0
    0.4410   -1.1244    0.2703 H   0  0  0  0  0  0  0  0  0  0  0  0
    2.7867   -1.4201   -1.5356 H   0  0  0  0  0  0  0  0  0  0  0  0
    2.5951   -2.1137    0.0608 H   0  0  0  0  0  0  0  0  0  0  0  0
    5.0473   -0.5088   -0.8857 H   0  0  0  0  0  0  0  0  0  0  0  0
    5.8370    0.6567    0.7866 H   0  0  0  0  0  0  0  0  0  0  0  0
    5.0064    0.0582    3.5695 H   0  0  0  0  0  0  0  0  0  0  0  0
    7.1192   -1.0663    3.0858 H   0  0  0  0  0  0  0  0  0  0  0  0
    7.2711    0.1176    4.3535 H   0  0  0  0  0  0  0  0  0  0  0  0
    8.3707    1.7234    2.6697 H   0  0  0  0  0  0  0  0  0  0  0  0
    9.4819   -0.9680    3.5219 H   0  0  0  0  0  0  0  0  0  0  0  0
   10.1112    0.6452    3.8675 H   0  0  0  0  0  0  0  0  0  0  0  0
   11.2162   -0.9612    1.9151 H   0  0  0  0  0  0  0  0  0  0  0  0
   11.1180    0.8096    1.6885 H   0  0  0  0  0  0  0  0  0  0  0  0
    9.8377   -0.5050   -0.1595 H   0  0  0  0  0  0  0  0  0  0  0  0
    6.2037    2.6805    2.4975 H   0  0  0  0  0  0  0  0  0  0  0  0
    3.5736    1.9051    3.2724 H   0  0  0  0  0  0  0  0  0  0  0  0
    4.4397    4.0957    5.1117 H   0  0  0  0  0  0  0  0  0  0  0  0
    4.4440   -3.3648   -0.8321 H   0  0  0  0  0  0  0  0  0  0  0  0
    7.8237   -5.5962   -1.8829 H   0  0  0  0  0  0  0  0  0  0  0  0
    8.5645   -4.0708   -1.4387 H   0  0  0  0  0  0  0  0  0  0  0  0
    9.5254   -2.8356   -3.2745 H   0  0  0  0  0  0  0  0  0  0  0  0
    9.6744   -2.3156   -5.6841 H   0  0  0  0  0  0  0  0  0  0  0  0
    8.0961   -3.3574   -7.2884 H   0  0  0  0  0  0  0  0  0  0  0  0
    6.3713   -4.9441   -6.4758 H   0  0  0  0  0  0  0  0  0  0  0  0
    6.2146   -5.4840   -4.0682 H   0  0  0  0  0  0  0  0  0  0  0  0
  1  2  1  0  0  0  0
  1 34  1  0  0  0  0
  1 35  1  0  0  0  0
  1 36  1  0  0  0  0
  2  3  1  0  0  0  0
  2  4  1  0  0  0  0
  2 37  1  0  0  0  0
  3 38  1  0  0  0  0
  3 39  1  0  0  0  0
  3 40  1  0  0  0  0
  4  5  1  0  0  0  0
  4 41  1  0  0  0  0
  4 42  1  0  0  0  0
  5  6  1  0  0  0  0
  5 23  1  0  0  0  0
  5 43  1  6  0  0  0
  6  7  2  0  0  0  0
  6  8  1  0  0  0  0
  8  9  1  0  0  0  0
  8 44  1  0  0  0  0
  9 10  1  0  0  0  0
  9 17  1  0  0  0  0
  9 45  1  1  0  0  0
 10 11  1  0  0  0  0
 10 46  1  0  0  0  0
 10 47  1  0  0  0  0
 11 12  1  0  0  0  0
 11 15  1  0  0  0  0
 11 48  1  0  0  0  0
 12 13  1  0  0  0  0
 12 49  1  0  0  0  0
 12 50  1  0  0  0  0
 13 14  1  0  0  0  0
 13 51  1  0  0  0  0
 13 52  1  0  0  0  0
 14 15  1  0  0  0  0
 14 53  1  0  0  0  0
 15 16  2  0  0  0  0
 17 18  1  0  0  0  0
 17 19  1  0  0  0  0
 17 54  1  0  0  0  0
 18 55  1  0  0  0  0
 19 20  2  0  0  0  0
 19 21  2  0  0  0  0
 19 22  1  0  0  0  0
 22 56  1  0  0  0  0
 23 24  1  0  0  0  0
 23 57  1  0  0  0  0
 24 25  2  0  0  0  0
 24 26  1  0  0  0  0
 26 27  1  0  0  0  0
 27 28  1  0  0  0  0
 27 58  1  0  0  0  0
 27 59  1  0  0  0  0
 28 29  1  0  0  0  0
 28 33  2  0  0  0  0
 29 30  2  0  0  0  0
 29 60  1  0  0  0  0
 30 31  1  0  0  0  0
 30 61  1  0  0  0  0
 31 32  2  0  0  0  0
 31 62  1  0  0  0  0
 32 33  1  0  0  0  0
 32 63  1  0  0  0  0
 33 64  1  0  0  0  0
M  END
$$$$
