
 OpenBabel07202414173D

 55 59  0  0  1  0  0  0  0  0999 V2000
    0.8932    0.4434    0.0687 Cl  0  0  0  0  0  0  0  0  0  0  0  0
    2.6077    0.3028    0.0910 C   0  0  0  0  0  0  0  0  0  0  0  0
    3.4007    1.4408    0.0949 C   0  0  0  0  0  0  0  0  0  0  0  0
    4.7899    1.3095    0.1020 C   0  0  0  0  0  0  0  0  0  0  0  0
    5.4007    0.0401    0.1106 C   0  0  0  0  0  0  0  0  0  0  0  0
    4.5963   -1.1162    0.1025 C   0  0  0  0  0  0  0  0  0  0  0  0
    3.1936   -0.9612    0.0995 C   0  0  0  0  0  0  0  0  0  0  0  0
    5.2430   -2.5072    0.1418 C   0  0  3  0  0  0  0  0  0  0  0  0
    6.7752   -2.4465   -0.0956 C   0  0  0  0  0  0  0  0  0  0  0  0
    7.5146   -1.3041    0.4463 N   0  0  0  0  0  0  0  0  0  0  0  0
    7.6468   -1.4586    1.8908 C   0  0  0  0  0  0  0  0  0  0  0  0
    8.4746   -0.3831    2.5576 C   0  0  0  0  0  0  0  0  0  0  0  0
    9.4341    0.1884    2.0632 O   0  0  0  0  0  0  0  0  0  0  0  0
    7.9926   -0.1381    3.8274 N   0  0  0  0  0  0  0  0  0  0  0  0
    8.5409    0.9245    4.5888 C   0  0  0  0  0  0  0  0  0  0  0  0
    7.7974    2.2335    4.3788 C   0  0  0  0  0  0  0  0  0  0  0  0
    7.1807    3.3195    4.2045 N   0  0  0  0  0  0  0  0  0  0  0  0
    6.9119   -0.0360    0.0209 C   0  0  0  0  0  0  0  0  0  0  0  0
    4.6990   -3.4319   -0.9516 C   0  0  0  0  0  0  0  0  0  0  0  0
    3.6871   -4.3338   -0.2905 C   0  0  0  0  0  0  0  0  0  0  0  0
    3.7018   -4.0720    1.1122 N   0  0  0  0  0  0  0  0  0  0  0  0
    2.7493   -4.6274    2.0427 C   0  0  0  0  0  0  0  0  0  0  0  0
    2.7175   -4.1381    3.3591 C   0  0  0  0  0  0  0  0  0  0  0  0
    1.9290   -4.5984    4.3579 N   0  0  0  0  0  0  0  0  0  0  0  0
    1.0637   -5.5706    4.0304 C   0  0  0  0  0  0  0  0  0  0  0  0
    0.8895   -6.0729    2.7457 C   0  0  0  0  0  0  0  0  0  0  0  0
   -0.1478   -6.9964    2.5059 C   0  0  0  0  0  0  0  0  0  0  0  0
   -0.3902   -7.4968    1.2337 C   0  0  0  0  0  0  0  0  0  0  0  0
    0.4404   -7.1214    0.1987 C   0  0  0  0  0  0  0  0  0  0  0  0
    1.4921   -6.2327    0.4406 C   0  0  0  0  0  0  0  0  0  0  0  0
    1.7501   -5.6233    1.7072 C   0  0  0  0  0  0  0  0  0  0  0  0
    4.7942   -3.2386    1.4418 C   0  0  0  0  0  0  0  0  0  0  0  0
    5.2510   -3.0570    2.5581 O   0  0  0  0  0  0  0  0  0  0  0  0
    2.9474    2.4286    0.0872 H   0  0  0  0  0  0  0  0  0  0  0  0
    5.4000    2.2122    0.0935 H   0  0  0  0  0  0  0  0  0  0  0  0
    2.5348   -1.8245    0.1105 H   0  0  0  0  0  0  0  0  0  0  0  0
    6.9629   -2.4145   -1.1790 H   0  0  0  0  0  0  0  0  0  0  0  0
    7.2422   -3.3835    0.2399 H   0  0  0  0  0  0  0  0  0  0  0  0
    8.1332   -2.4093    2.1370 H   0  0  0  0  0  0  0  0  0  0  0  0
    6.6649   -1.4233    2.3553 H   0  0  0  0  0  0  0  0  0  0  0  0
    7.1230   -0.5576    4.1320 H   0  0  0  0  0  0  0  0  0  0  0  0
    9.6015    1.0711    4.3580 H   0  0  0  0  0  0  0  0  0  0  0  0
    8.4633    0.6451    5.6447 H   0  0  0  0  0  0  0  0  0  0  0  0
    7.1758    0.1210   -1.0334 H   0  0  0  0  0  0  0  0  0  0  0  0
    7.3546    0.8099    0.5603 H   0  0  0  0  0  0  0  0  0  0  0  0
    5.4849   -4.0721   -1.3782 H   0  0  0  0  0  0  0  0  0  0  0  0
    4.2605   -2.8929   -1.7984 H   0  0  0  0  0  0  0  0  0  0  0  0
    4.0037   -5.3698   -0.4380 H   0  0  0  0  0  0  0  0  0  0  0  0
    2.7021   -4.1283   -0.7108 H   0  0  0  0  0  0  0  0  0  0  0  0
    3.3193   -3.2937    3.6791 H   0  0  0  0  0  0  0  0  0  0  0  0
    0.4746   -5.9416    4.8671 H   0  0  0  0  0  0  0  0  0  0  0  0
   -0.8034   -7.3116    3.3172 H   0  0  0  0  0  0  0  0  0  0  0  0
   -1.2192   -8.1742    1.0516 H   0  0  0  0  0  0  0  0  0  0  0  0
    0.2810   -7.5065   -0.8062 H   0  0  0  0  0  0  0  0  0  0  0  0
    2.0892   -6.0352   -0.4364 H   0  0  0  0  0  0  0  0  0  0  0  0
  1  2  1  0  0  0  0
  2  3  1  0  0  0  0
  2  7  2  0  0  0  0
  3  4  2  0  0  0  0
  3 34  1  0  0  0  0
  4  5  1  0  0  0  0
  4 35  1  0  0  0  0
  5  6  2  0  0  0  0
  5 18  1  0  0  0  0
  6  7  1  0  0  0  0
  6  8  1  0  0  0  0
  7 36  1  0  0  0  0
  8  9  1  0  0  0  0
  8 19  1  0  0  0  0
  8 32  1  0  0  0  0
  9 10  1  0  0  0  0
  9 37  1  0  0  0  0
  9 38  1  0  0  0  0
 10 11  1  0  0  0  0
 10 18  1  0  0  0  0
 11 12  1  0  0  0  0
 11 39  1  0  0  0  0
 11 40  1  0  0  0  0
 12 13  2  0  0  0  0
 12 14  1  0  0  0  0
 14 15  1  0  0  0  0
 14 41  1  0  0  0  0
 15 16  1  0  0  0  0
 15 42  1  0  0  0  0
 15 43  1  0  0  0  0
 16 17  3  0  0  0  0
 18 44  1  0  0  0  0
 18 45  1  0  0  0  0
 19 20  1  0  0  0  0
 19 46  1  0  0  0  0
 19 47  1  0  0  0  0
 20 21  1  0  0  0  0
 20 48  1  0  0  0  0
 20 49  1  0  0  0  0
 21 22  1  0  0  0  0
 21 32  1  0  0  0  0
 22 23  1  0  0  0  0
 22 31  2  0  0  0  0
 23 24  2  0  0  0  0
 23 50  1  0  0  0  0
 24 25  1  0  0  0  0
 25 26  2  0  0  0  0
 25 51  1  0  0  0  0
 26 27  1  0  0  0  0
 26 31  1  0  0  0  0
 27 28  2  0  0  0  0
 27 52  1  0  0  0  0
 28 29  1  0  0  0  0
 28 53  1  0  0  0  0
 29 30  2  0  0  0  0
 29 54  1  0  0  0  0
 30 31  1  0  0  0  0
 30 55  1  0  0  0  0
 32 33  2  0  0  0  0
M  END
$$$$
