
 OpenBabel07202414183D

 41 43  0  0  0  0  0  0  0  0999 V2000
    2.2900   -0.1821   -0.2371 F   0  0  0  0  0  0  0  0  0  0  0  0
    3.0927    0.8667    0.0314 C   0  0  0  0  0  0  0  0  0  0  0  0
    3.5156    1.3756   -1.1500 F   0  0  0  0  0  0  0  0  0  0  0  0
    2.3374    1.8207    0.6273 F   0  0  0  0  0  0  0  0  0  0  0  0
    4.2813    0.5059    0.9109 C   0  0  0  0  0  0  0  0  0  0  0  0
    4.2527   -0.8630    1.3433 O   0  0  0  0  0  0  0  0  0  0  0  0
    5.0034   -1.1211    2.4588 C   0  0  0  0  0  0  0  0  0  0  0  0
    4.5997   -2.2007    3.2323 C   0  0  0  0  0  0  0  0  0  0  0  0
    5.2765   -2.4943    4.4135 C   0  0  0  0  0  0  0  0  0  0  0  0
    6.3659   -1.7063    4.8291 C   0  0  0  0  0  0  0  0  0  0  0  0
    7.0356   -1.9793    6.0201 C   0  0  0  0  0  0  0  0  0  0  0  0
    8.0707   -1.2605    6.4933 N   0  0  0  0  0  0  0  0  0  0  0  0
    8.4862   -0.2200    5.7342 C   0  0  0  0  0  0  0  0  0  0  0  0
    7.9229    0.1509    4.5124 C   0  0  0  0  0  0  0  0  0  0  0  0
    8.3986    1.2722    3.7691 N   0  0  0  0  0  0  0  0  0  0  0  0
    9.6025    1.9238    3.9650 C   0  0  0  0  0  0  0  0  0  0  0  0
   10.4758    1.5896    4.7626 O   0  0  0  0  0  0  0  0  0  0  0  0
    9.8080    3.1278    3.0605 C   0  0  0  0  0  0  0  0  0  0  0  0
   10.4148    2.7800    1.7227 C   0  0  0  0  0  0  0  0  0  0  0  0
   11.6461    2.1107    1.6465 C   0  0  0  0  0  0  0  0  0  0  0  0
   12.2342    1.8374    0.4095 C   0  0  0  0  0  0  0  0  0  0  0  0
   11.6023    2.2364   -0.7671 C   0  0  0  0  0  0  0  0  0  0  0  0
   10.3810    2.9022   -0.7003 C   0  0  0  0  0  0  0  0  0  0  0  0
    9.5978    3.4003   -2.1493 Cl  0  0  0  0  0  0  0  0  0  0  0  0
    9.7867    3.1765    0.5331 C   0  0  0  0  0  0  0  0  0  0  0  0
    6.8179   -0.6172    4.0462 C   0  0  0  0  0  0  0  0  0  0  0  0
    6.1259   -0.3742    2.8380 C   0  0  0  0  0  0  0  0  0  0  0  0
    4.2694    1.1787    1.7787 H   0  0  0  0  0  0  0  0  0  0  0  0
    5.2069    0.6747    0.3475 H   0  0  0  0  0  0  0  0  0  0  0  0
    3.7477   -2.8043    2.9287 H   0  0  0  0  0  0  0  0  0  0  0  0
    4.9420   -3.3383    5.0153 H   0  0  0  0  0  0  0  0  0  0  0  0
    6.7429   -2.8098    6.6567 H   0  0  0  0  0  0  0  0  0  0  0  0
    9.2995    0.3340    6.1896 H   0  0  0  0  0  0  0  0  0  0  0  0
    7.8603    1.5611    2.9648 H   0  0  0  0  0  0  0  0  0  0  0  0
   10.4720    3.8307    3.5793 H   0  0  0  0  0  0  0  0  0  0  0  0
    8.8521    3.6512    2.9370 H   0  0  0  0  0  0  0  0  0  0  0  0
   12.1646    1.8024    2.5551 H   0  0  0  0  0  0  0  0  0  0  0  0
   13.1904    1.3205    0.3659 H   0  0  0  0  0  0  0  0  0  0  0  0
   12.0691    2.0319   -1.7268 H   0  0  0  0  0  0  0  0  0  0  0  0
    8.8430    3.7156    0.5607 H   0  0  0  0  0  0  0  0  0  0  0  0
    6.4746    0.4074    2.1760 H   0  0  0  0  0  0  0  0  0  0  0  0
  1  2  1  0  0  0  0
  2  3  1  0  0  0  0
  2  4  1  0  0  0  0
  2  5  1  0  0  0  0
  5  6  1  0  0  0  0
  5 28  1  0  0  0  0
  5 29  1  0  0  0  0
  6  7  1  0  0  0  0
  7  8  1  0  0  0  0
  7 27  2  0  0  0  0
  8  9  2  0  0  0  0
  8 30  1  0  0  0  0
  9 10  1  0  0  0  0
  9 31  1  0  0  0  0
 10 11  1  0  0  0  0
 10 26  2  0  0  0  0
 11 12  2  0  0  0  0
 11 32  1  0  0  0  0
 12 13  1  0  0  0  0
 13 14  2  0  0  0  0
 13 33  1  0  0  0  0
 14 15  1  0  0  0  0
 14 26  1  0  0  0  0
 15 16  1  0  0  0  0
 15 34  1  0  0  0  0
 16 17  2  0  0  0  0
 16 18  1  0  0  0  0
 18 19  1  0  0  0  0
 18 35  1  0  0  0  0
 18 36  1  0  0  0  0
 19 20  1  0  0  0  0
 19 25  2  0  0  0  0
 20 21  2  0  0  0  0
 20 37  1  0  0  0  0
 21 22  1  0  0  0  0
 21 38  1  0  0  0  0
 22 23  2  0  0  0  0
 22 39  1  0  0  0  0
 23 24  1  0  0  0  0
 23 25  1  0  0  0  0
 25 40  1  0  0  0  0
 26 27  1  0  0  0  0
 27 41  1  0  0  0  0
M  END
$$$$
