
 OpenBabel07202414133D

 55 59  0  0  0  0  0  0  0  0999 V2000
   -0.2976   -5.4264   -0.3280 C   0  0  0  0  0  0  0  0  0  0  0  0
    0.3826   -4.2871    0.3801 C   0  0  0  0  0  0  0  0  0  0  0  0
   -0.0890   -2.9524    0.3583 C   0  0  0  0  0  0  0  0  0  0  0  0
   -1.2856   -2.5830   -0.3211 N   0  0  0  0  0  0  0  0  0  0  0  0
   -2.5713   -3.1567   -0.2394 C   0  0  0  0  0  0  0  0  0  0  0  0
   -3.5057   -2.9214   -1.2634 C   0  0  0  0  0  0  0  0  0  0  0  0
   -4.8110   -3.4437   -1.2009 C   0  0  0  0  0  0  0  0  0  0  0  0
   -5.8144   -3.1655   -2.2990 C   0  0  0  0  0  0  0  0  0  0  0  0
   -6.6634   -1.9090   -2.1561 C   0  0  0  0  0  0  0  0  0  0  0  0
   -7.2725   -1.4662   -3.1294 O   0  0  0  0  0  0  0  0  0  0  0  0
   -6.7028   -1.3414   -0.8983 N   0  0  0  0  0  0  0  0  0  0  0  0
   -7.4593   -0.1886   -0.5833 C   0  0  0  0  0  0  0  0  0  0  0  0
   -8.7589   -0.0194   -1.0632 C   0  0  0  0  0  0  0  0  0  0  0  0
   -9.5541    1.0297   -0.7548 N   0  0  0  0  0  0  0  0  0  0  0  0
   -9.0127    1.9740    0.0430 C   0  0  0  0  0  0  0  0  0  0  0  0
   -7.7161    1.9319    0.5633 C   0  0  0  0  0  0  0  0  0  0  0  0
   -7.2009    2.9788    1.3477 C   0  0  0  0  0  0  0  0  0  0  0  0
   -5.8899    2.9381    1.8190 C   0  0  0  0  0  0  0  0  0  0  0  0
   -5.0819    1.8480    1.5224 C   0  0  0  0  0  0  0  0  0  0  0  0
   -5.5859    0.7967    0.7560 C   0  0  0  0  0  0  0  0  0  0  0  0
   -6.9127    0.8106    0.2569 C   0  0  0  0  0  0  0  0  0  0  0  0
   -5.1869   -4.1963   -0.0812 C   0  0  0  0  0  0  0  0  0  0  0  0
   -4.2743   -4.4172    0.9470 C   0  0  0  0  0  0  0  0  0  0  0  0
   -4.7540   -5.3312    2.3239 Cl  0  0  0  0  0  0  0  0  0  0  0  0
   -2.9833   -3.8951    0.8764 C   0  0  0  0  0  0  0  0  0  0  0  0
    0.7182   -1.9131    0.9296 C   0  0  0  0  0  0  0  0  0  0  0  0
    0.3866   -0.5368    0.8580 C   0  0  0  0  0  0  0  0  0  0  0  0
    1.2007    0.4495    1.4205 C   0  0  0  0  0  0  0  0  0  0  0  0
    2.3633    0.0903    2.0900 C   0  0  0  0  0  0  0  0  0  0  0  0
    2.7118   -1.2563    2.1934 C   0  0  0  0  0  0  0  0  0  0  0  0
    1.9114   -2.2548    1.6207 C   0  0  0  0  0  0  0  0  0  0  0  0
    2.2927   -3.5950    1.7163 C   0  0  0  0  0  0  0  0  0  0  0  0
    1.5470   -4.5921    1.1002 C   0  0  0  0  0  0  0  0  0  0  0  0
   -0.8429   -5.0947   -1.2149 H   0  0  0  0  0  0  0  0  0  0  0  0
   -0.9745   -5.9524    0.3508 H   0  0  0  0  0  0  0  0  0  0  0  0
    0.4476   -6.1479   -0.6897 H   0  0  0  0  0  0  0  0  0  0  0  0
   -1.0733   -2.1262   -1.2025 H   0  0  0  0  0  0  0  0  0  0  0  0
   -3.2101   -2.3331   -2.1312 H   0  0  0  0  0  0  0  0  0  0  0  0
   -6.5067   -4.0121   -2.3843 H   0  0  0  0  0  0  0  0  0  0  0  0
   -5.2799   -3.0980   -3.2547 H   0  0  0  0  0  0  0  0  0  0  0  0
   -5.9523   -1.5732   -0.2629 H   0  0  0  0  0  0  0  0  0  0  0  0
   -9.2320   -0.7660   -1.6955 H   0  0  0  0  0  0  0  0  0  0  0  0
   -9.6742    2.8123    0.2512 H   0  0  0  0  0  0  0  0  0  0  0  0
   -7.8155    3.8472    1.5781 H   0  0  0  0  0  0  0  0  0  0  0  0
   -5.4955    3.7626    2.4066 H   0  0  0  0  0  0  0  0  0  0  0  0
   -4.0532    1.8173    1.8727 H   0  0  0  0  0  0  0  0  0  0  0  0
   -4.9043   -0.0181    0.5256 H   0  0  0  0  0  0  0  0  0  0  0  0
   -6.1947   -4.6012   -0.0033 H   0  0  0  0  0  0  0  0  0  0  0  0
   -2.2942   -4.0676    1.6996 H   0  0  0  0  0  0  0  0  0  0  0  0
   -0.5222   -0.2204    0.3506 H   0  0  0  0  0  0  0  0  0  0  0  0
    0.9271    1.4975    1.3341 H   0  0  0  0  0  0  0  0  0  0  0  0
    3.0000    0.8518    2.5321 H   0  0  0  0  0  0  0  0  0  0  0  0
    3.6238   -1.5184    2.7218 H   0  0  0  0  0  0  0  0  0  0  0  0
    3.1946   -3.8712    2.2573 H   0  0  0  0  0  0  0  0  0  0  0  0
    1.8954   -5.6225    1.1673 H   0  0  0  0  0  0  0  0  0  0  0  0
  1  2  1  0  0  0  0
  1 34  1  0  0  0  0
  1 35  1  0  0  0  0
  1 36  1  0  0  0  0
  2  3  2  0  0  0  0
  2 33  1  0  0  0  0
  3  4  1  0  0  0  0
  3 26  1  0  0  0  0
  4  5  1  0  0  0  0
  4 37  1  0  0  0  0
  5  6  2  0  0  0  0
  5 25  1  0  0  0  0
  6  7  1  0  0  0  0
  6 38  1  0  0  0  0
  7  8  1  0  0  0  0
  7 22  2  0  0  0  0
  8  9  1  0  0  0  0
  8 39  1  0  0  0  0
  8 40  1  0  0  0  0
  9 10  2  0  0  0  0
  9 11  1  0  0  0  0
 11 12  1  0  0  0  0
 11 41  1  0  0  0  0
 12 13  2  0  0  0  0
 12 21  1  0  0  0  0
 13 14  1  0  0  0  0
 13 42  1  0  0  0  0
 14 15  2  0  0  0  0
 15 16  1  0  0  0  0
 15 43  1  0  0  0  0
 16 17  2  0  0  0  0
 16 21  1  0  0  0  0
 17 18  1  0  0  0  0
 17 44  1  0  0  0  0
 18 19  2  0  0  0  0
 18 45  1  0  0  0  0
 19 20  1  0  0  0  0
 19 46  1  0  0  0  0
 20 21  2  0  0  0  0
 20 47  1  0  0  0  0
 22 23  1  0  0  0  0
 22 48  1  0  0  0  0
 23 24  1  0  0  0  0
 23 25  2  0  0  0  0
 25 49  1  0  0  0  0
 26 27  2  0  0  0  0
 26 31  1  0  0  0  0
 27 28  1  0  0  0  0
 27 50  1  0  0  0  0
 28 29  2  0  0  0  0
 28 51  1  0  0  0  0
 29 30  1  0  0  0  0
 29 52  1  0  0  0  0
 30 31  2  0  0  0  0
 30 53  1  0  0  0  0
 31 32  1  0  0  0  0
 32 33  2  0  0  0  0
 32 54  1  0  0  0  0
 33 55  1  0  0  0  0
M  END
$$$$
