
 OpenBabel07202414193D

 44 47  0  0  1  0  0  0  0  0999 V2000
    1.2398    0.2463   -0.9796 O   0  0  0  0  0  0  0  0  0  0  0  0
    2.2915    0.0323   -0.3739 C   0  0  0  0  0  0  0  0  0  0  0  0
    2.8716    1.0869    0.5564 C   0  0  0  0  0  0  0  0  0  0  0  0
    2.5071    0.9554    2.0190 C   0  0  0  0  0  0  0  0  0  0  0  0
    1.2352    0.5018    2.3785 C   0  0  0  0  0  0  0  0  0  0  0  0
    0.7859    0.4033    3.6471 N   0  0  0  0  0  0  0  0  0  0  0  0
    1.6314    0.8034    4.6188 C   0  0  0  0  0  0  0  0  0  0  0  0
    2.9174    1.2929    4.3989 C   0  0  0  0  0  0  0  0  0  0  0  0
    3.7329    1.7031    5.4704 C   0  0  0  0  0  0  0  0  0  0  0  0
    5.0139    2.1973    5.2410 C   0  0  0  0  0  0  0  0  0  0  0  0
    5.4875    2.2930    3.9399 C   0  0  0  0  0  0  0  0  0  0  0  0
    4.6804    1.8958    2.8689 C   0  0  0  0  0  0  0  0  0  0  0  0
    3.3757    1.3804    3.0638 C   0  0  0  0  0  0  0  0  0  0  0  0
    2.9942   -1.1442   -0.5261 N   0  0  0  0  0  0  0  0  0  0  0  0
    2.5588   -2.1668   -1.4601 C   0  0  0  0  0  0  0  0  0  0  0  0
    3.1330   -3.4608   -0.9064 C   0  0  0  0  0  0  0  0  0  0  0  0
    4.4326   -3.0298   -0.2123 C   0  0  1  0  0  0  0  0  0  0  0  0
    5.6375   -3.1703   -1.1265 C   0  0  0  0  0  0  0  0  0  0  0  0
    6.0906   -2.1465   -1.9708 C   0  0  0  0  0  0  0  0  0  0  0  0
    7.2154   -2.3327   -2.7814 C   0  0  0  0  0  0  0  0  0  0  0  0
    7.8963   -3.5498   -2.7707 C   0  0  0  0  0  0  0  0  0  0  0  0
    7.4458   -4.5796   -1.9531 C   0  0  0  0  0  0  0  0  0  0  0  0
    8.2737   -6.0878   -1.9421 Cl  0  0  0  0  0  0  0  0  0  0  0  0
    6.3275   -4.3970   -1.1390 C   0  0  0  0  0  0  0  0  0  0  0  0
    4.1049   -1.6134    0.2949 C   0  0  0  0  0  0  0  0  0  0  0  0
    2.5169    2.0647    0.2058 H   0  0  0  0  0  0  0  0  0  0  0  0
    3.9525    1.0890    0.3998 H   0  0  0  0  0  0  0  0  0  0  0  0
    0.5017    0.2018    1.6320 H   0  0  0  0  0  0  0  0  0  0  0  0
    1.2241    0.7240    5.6243 H   0  0  0  0  0  0  0  0  0  0  0  0
    3.3695    1.6432    6.4948 H   0  0  0  0  0  0  0  0  0  0  0  0
    5.6370    2.5108    6.0747 H   0  0  0  0  0  0  0  0  0  0  0  0
    6.4855    2.6817    3.7517 H   0  0  0  0  0  0  0  0  0  0  0  0
    5.0984    2.0078    1.8726 H   0  0  0  0  0  0  0  0  0  0  0  0
    2.9895   -1.9259   -2.4386 H   0  0  0  0  0  0  0  0  0  0  0  0
    1.4695   -2.1963   -1.5560 H   0  0  0  0  0  0  0  0  0  0  0  0
    3.2608   -4.2230   -1.6815 H   0  0  0  0  0  0  0  0  0  0  0  0
    2.4418   -3.8606   -0.1537 H   0  0  0  0  0  0  0  0  0  0  0  0
    4.6187   -3.6659    0.6631 H   0  0  0  0  0  0  0  0  0  0  0  0
    5.5769   -1.1886   -2.0171 H   0  0  0  0  0  0  0  0  0  0  0  0
    7.5602   -1.5260   -3.4245 H   0  0  0  0  0  0  0  0  0  0  0  0
    8.7694   -3.6873   -3.4030 H   0  0  0  0  0  0  0  0  0  0  0  0
    5.9900   -5.2182   -0.5093 H   0  0  0  0  0  0  0  0  0  0  0  0
    4.9444   -0.9142    0.2485 H   0  0  0  0  0  0  0  0  0  0  0  0
    3.7487   -1.6527    1.3300 H   0  0  0  0  0  0  0  0  0  0  0  0
  1  2  2  0  0  0  0
  2  3  1  0  0  0  0
  2 14  1  0  0  0  0
  3  4  1  0  0  0  0
  3 26  1  0  0  0  0
  3 27  1  0  0  0  0
  4  5  1  0  0  0  0
  4 13  2  0  0  0  0
  5  6  2  0  0  0  0
  5 28  1  0  0  0  0
  6  7  1  0  0  0  0
  7  8  2  0  0  0  0
  7 29  1  0  0  0  0
  8  9  1  0  0  0  0
  8 13  1  0  0  0  0
  9 10  2  0  0  0  0
  9 30  1  0  0  0  0
 10 11  1  0  0  0  0
 10 31  1  0  0  0  0
 11 12  2  0  0  0  0
 11 32  1  0  0  0  0
 12 13  1  0  0  0  0
 12 33  1  0  0  0  0
 14 15  1  0  0  0  0
 14 25  1  0  0  0  0
 15 16  1  0  0  0  0
 15 34  1  0  0  0  0
 15 35  1  0  0  0  0
 16 17  1  0  0  0  0
 16 36  1  0  0  0  0
 16 37  1  0  0  0  0
 17 18  1  0  0  0  0
 17 25  1  0  0  0  0
 17 38  1  1  0  0  0
 18 19  1  0  0  0  0
 18 24  2  0  0  0  0
 19 20  2  0  0  0  0
 19 39  1  0  0  0  0
 20 21  1  0  0  0  0
 20 40  1  0  0  0  0
 21 22  2  0  0  0  0
 21 41  1  0  0  0  0
 22 23  1  0  0  0  0
 22 24  1  0  0  0  0
 24 42  1  0  0  0  0
 25 43  1  0  0  0  0
 25 44  1  0  0  0  0
M  END
$$$$
