
 OpenBabel07202414143D

 79 85  0  0  1  0  0  0  0  0999 V2000
    0.8443    1.7862   -0.2696 C   0  0  0  0  0  0  0  0  0  0  0  0
    2.2714    1.9456   -0.2125 N   0  0  0  0  0  0  0  0  0  0  0  0
    3.1374    0.9628   -0.6217 C   0  0  0  0  0  0  0  0  0  0  0  0
    2.7936   -0.1314   -1.0530 O   0  0  0  0  0  0  0  0  0  0  0  0
    4.6129    1.3169   -0.4852 C   0  0  0  0  0  0  0  0  0  0  0  0
    5.1221    1.4737    0.8803 N   0  0  0  0  0  0  0  0  0  0  0  0
    5.5471    0.2694    1.5653 C   0  0  0  0  0  0  0  0  0  0  0  0
    6.5520    0.4898    2.6997 C   0  0  3  0  0  0  0  0  0  0  0  0
    6.5482   -0.7846    3.5764 C   0  0  0  0  0  0  0  0  0  0  0  0
    7.9203   -1.3787    3.3587 C   0  0  0  0  0  0  0  0  0  0  0  0
    8.7634   -0.2457    3.1020 N   0  0  0  0  0  0  0  0  0  0  0  0
   10.1783   -0.2099    3.3458 C   0  0  0  0  0  0  0  0  0  0  0  0
   11.0321    0.5570    2.5542 C   0  0  0  0  0  0  0  0  0  0  0  0
   12.3874    0.4825    2.5785 N   0  0  0  0  0  0  0  0  0  0  0  0
   12.9373   -0.3793    3.4565 C   0  0  0  0  0  0  0  0  0  0  0  0
   12.2122   -1.1041    4.3955 C   0  0  0  0  0  0  0  0  0  0  0  0
   12.8491   -1.9406    5.3379 C   0  0  0  0  0  0  0  0  0  0  0  0
   12.0959   -2.6834    6.2443 C   0  0  0  0  0  0  0  0  0  0  0  0
   10.7197   -2.5311    6.2625 C   0  0  0  0  0  0  0  0  0  0  0  0
    9.9977   -3.3818    7.0523 O   0  0  0  0  0  0  0  0  0  0  0  0
    8.6953   -3.7106    6.5439 C   0  0  0  0  0  0  0  0  0  0  0  0
    8.2802   -5.1430    6.9176 C   0  0  0  0  0  0  0  0  0  0  0  0
    8.0838   -5.4148    8.3519 N   0  0  0  0  0  0  0  0  0  0  0  0
    9.2709   -5.1780    9.1900 C   0  0  0  0  0  0  0  0  0  0  0  0
   10.4738   -6.0248    8.8108 C   0  0  0  0  0  0  0  0  0  0  0  0
   10.0750   -7.7522    8.9862 S   0  0  0  0  0  0  0  0  0  0  0  0
   11.0312   -8.5007    8.1973 O   0  0  0  0  0  0  0  0  0  0  0  0
    9.9046   -8.0313   10.3971 O   0  0  0  0  0  0  0  0  0  0  0  0
    8.4925   -7.9043    8.1926 C   0  0  0  0  0  0  0  0  0  0  0  0
    7.5588   -6.7723    8.5863 C   0  0  0  0  0  0  0  0  0  0  0  0
   10.1263   -1.5647    5.4580 C   0  0  0  0  0  0  0  0  0  0  0  0
   10.8080   -0.9605    4.3843 C   0  0  0  0  0  0  0  0  0  0  0  0
    8.0272    0.5987    2.2422 C   0  0  0  0  0  0  0  0  0  0  0  0
    8.4419    1.3774    1.4006 O   0  0  0  0  0  0  0  0  0  0  0  0
    6.2524    1.7597    3.4896 C   0  0  0  0  0  0  0  0  0  0  0  0
    6.9404    2.0416    4.6907 C   0  0  0  0  0  0  0  0  0  0  0  0
    6.7688    3.2549    5.3529 C   0  0  0  0  0  0  0  0  0  0  0  0
    7.6820    3.5826    6.7723 Cl  0  0  0  0  0  0  0  0  0  0  0  0
    5.8927    4.2034    4.8494 C   0  0  0  0  0  0  0  0  0  0  0  0
    5.2146    3.9521    3.6528 C   0  0  0  0  0  0  0  0  0  0  0  0
    5.4103    2.7476    2.9565 C   0  0  0  0  0  0  0  0  0  0  0  0
    4.7989    2.6152    1.6045 C   0  0  0  0  0  0  0  0  0  0  0  0
    4.0711    3.5074    1.1722 O   0  0  0  0  0  0  0  0  0  0  0  0
    5.2320    2.2043   -1.5575 C   0  0  0  0  0  0  0  0  0  0  0  0
    5.5489    0.7462   -1.5508 C   0  0  0  0  0  0  0  0  0  0  0  0
    0.3762    2.5862    0.3093 H   0  0  0  0  0  0  0  0  0  0  0  0
    0.5616    0.8138    0.1417 H   0  0  0  0  0  0  0  0  0  0  0  0
    0.5217    1.8441   -1.3125 H   0  0  0  0  0  0  0  0  0  0  0  0
    2.6774    2.8007    0.1713 H   0  0  0  0  0  0  0  0  0  0  0  0
    5.9342   -0.4576    0.8432 H   0  0  0  0  0  0  0  0  0  0  0  0
    4.6193   -0.1514    1.9808 H   0  0  0  0  0  0  0  0  0  0  0  0
    5.7847   -1.5175    3.2914 H   0  0  0  0  0  0  0  0  0  0  0  0
    6.3799   -0.5687    4.6378 H   0  0  0  0  0  0  0  0  0  0  0  0
    7.9287   -2.0044    2.4576 H   0  0  0  0  0  0  0  0  0  0  0  0
    8.1795   -2.0278    4.1803 H   0  0  0  0  0  0  0  0  0  0  0  0
   10.6673    1.2657    1.8183 H   0  0  0  0  0  0  0  0  0  0  0  0
   14.0196   -0.4625    3.3908 H   0  0  0  0  0  0  0  0  0  0  0  0
   13.9330   -2.0399    5.3493 H   0  0  0  0  0  0  0  0  0  0  0  0
   12.5817   -3.3746    6.9279 H   0  0  0  0  0  0  0  0  0  0  0  0
    8.6926   -3.6927    5.4486 H   0  0  0  0  0  0  0  0  0  0  0  0
    7.9592   -2.9819    6.9146 H   0  0  0  0  0  0  0  0  0  0  0  0
    9.0120   -5.8290    6.4761 H   0  0  0  0  0  0  0  0  0  0  0  0
    7.3285   -5.3331    6.4014 H   0  0  0  0  0  0  0  0  0  0  0  0
    9.0030   -5.3759   10.2370 H   0  0  0  0  0  0  0  0  0  0  0  0
    9.5334   -4.1180    9.1879 H   0  0  0  0  0  0  0  0  0  0  0  0
   11.3235   -5.8139    9.4671 H   0  0  0  0  0  0  0  0  0  0  0  0
   10.8039   -5.8581    7.7800 H   0  0  0  0  0  0  0  0  0  0  0  0
    8.0754   -8.8699    8.4963 H   0  0  0  0  0  0  0  0  0  0  0  0
    8.6603   -7.9372    7.1120 H   0  0  0  0  0  0  0  0  0  0  0  0
    7.3002   -6.8632    9.6492 H   0  0  0  0  0  0  0  0  0  0  0  0
    6.6076   -6.8874    8.0514 H   0  0  0  0  0  0  0  0  0  0  0  0
    9.1035   -1.2798    5.6790 H   0  0  0  0  0  0  0  0  0  0  0  0
    7.6671    1.3373    5.0936 H   0  0  0  0  0  0  0  0  0  0  0  0
    5.7633    5.1586    5.3533 H   0  0  0  0  0  0  0  0  0  0  0  0
    4.5707    4.7252    3.2400 H   0  0  0  0  0  0  0  0  0  0  0  0
    6.0160    2.8891   -1.2551 H   0  0  0  0  0  0  0  0  0  0  0  0
    4.5881    2.5862   -2.3400 H   0  0  0  0  0  0  0  0  0  0  0  0
    6.5493    0.4482   -1.2616 H   0  0  0  0  0  0  0  0  0  0  0  0
    5.1184    0.1306   -2.3334 H   0  0  0  0  0  0  0  0  0  0  0  0
  1  2  1  0  0  0  0
  1 46  1  0  0  0  0
  1 47  1  0  0  0  0
  1 48  1  0  0  0  0
  2  3  1  0  0  0  0
  2 49  1  0  0  0  0
  3  4  2  0  0  0  0
  3  5  1  0  0  0  0
  5  6  1  0  0  0  0
  5 44  1  0  0  0  0
  5 45  1  0  0  0  0
  6  7  1  0  0  0  0
  6 42  1  0  0  0  0
  7  8  1  0  0  0  0
  7 50  1  0  0  0  0
  7 51  1  0  0  0  0
  8  9  1  0  0  0  0
  8 33  1  0  0  0  0
  8 35  1  0  0  0  0
  9 10  1  0  0  0  0
  9 52  1  0  0  0  0
  9 53  1  0  0  0  0
 10 11  1  0  0  0  0
 10 54  1  0  0  0  0
 10 55  1  0  0  0  0
 11 12  1  0  0  0  0
 11 33  1  0  0  0  0
 12 13  1  0  0  0  0
 12 32  2  0  0  0  0
 13 14  2  0  0  0  0
 13 56  1  0  0  0  0
 14 15  1  0  0  0  0
 15 16  2  0  0  0  0
 15 57  1  0  0  0  0
 16 17  1  0  0  0  0
 16 32  1  0  0  0  0
 17 18  2  0  0  0  0
 17 58  1  0  0  0  0
 18 19  1  0  0  0  0
 18 59  1  0  0  0  0
 19 20  1  0  0  0  0
 19 31  2  0  0  0  0
 20 21  1  0  0  0  0
 21 22  1  0  0  0  0
 21 60  1  0  0  0  0
 21 61  1  0  0  0  0
 22 23  1  0  0  0  0
 22 62  1  0  0  0  0
 22 63  1  0  0  0  0
 23 24  1  0  0  0  0
 23 30  1  0  0  0  0
 24 25  1  0  0  0  0
 24 64  1  0  0  0  0
 24 65  1  0  0  0  0
 25 26  1  0  0  0  0
 25 66  1  0  0  0  0
 25 67  1  0  0  0  0
 26 27  2  0  0  0  0
 26 28  2  0  0  0  0
 26 29  1  0  0  0  0
 29 30  1  0  0  0  0
 29 68  1  0  0  0  0
 29 69  1  0  0  0  0
 30 70  1  0  0  0  0
 30 71  1  0  0  0  0
 31 32  1  0  0  0  0
 31 72  1  0  0  0  0
 33 34  2  0  0  0  0
 35 36  1  0  0  0  0
 35 41  2  0  0  0  0
 36 37  2  0  0  0  0
 36 73  1  0  0  0  0
 37 38  1  0  0  0  0
 37 39  1  0  0  0  0
 39 40  2  0  0  0  0
 39 74  1  0  0  0  0
 40 41  1  0  0  0  0
 40 75  1  0  0  0  0
 41 42  1  0  0  0  0
 42 43  2  0  0  0  0
 44 45  1  0  0  0  0
 44 76  1  0  0  0  0
 44 77  1  0  0  0  0
 45 78  1  0  0  0  0
 45 79  1  0  0  0  0
M  END
$$$$
