
 OpenBabel07202414143D

 50 53  0  0  0  0  0  0  0  0999 V2000
    9.0663   -6.7848   -1.6864 C   0  0  0  0  0  0  0  0  0  0  0  0
    9.1180   -5.8890   -2.7952 O   0  0  0  0  0  0  0  0  0  0  0  0
    8.0935   -4.9785   -2.8563 C   0  0  0  0  0  0  0  0  0  0  0  0
    7.7790   -4.3988   -4.0905 C   0  0  0  0  0  0  0  0  0  0  0  0
    8.7430   -4.8324   -5.6672 Br  0  0  0  0  0  0  0  0  0  0  0  0
    6.7108   -3.5021   -4.1961 C   0  0  0  0  0  0  0  0  0  0  0  0
    5.9606   -3.1644   -3.0640 C   0  0  0  0  0  0  0  0  0  0  0  0
    6.3013   -3.6824   -1.8143 C   0  0  0  0  0  0  0  0  0  0  0  0
    5.5385   -3.3351   -0.6727 N   0  0  0  0  0  0  0  0  0  0  0  0
    6.0100   -3.2984    0.6632 C   0  0  0  0  0  0  0  0  0  0  0  0
    5.1447   -3.5652    1.7272 C   0  0  0  0  0  0  0  0  0  0  0  0
    5.6072   -3.4853    3.0426 C   0  0  0  0  0  0  0  0  0  0  0  0
    4.5304   -3.8120    4.3451 Cl  0  0  0  0  0  0  0  0  0  0  0  0
    6.9319   -3.1437    3.3188 C   0  0  0  0  0  0  0  0  0  0  0  0
    7.8114   -2.8570    2.2726 C   0  0  0  0  0  0  0  0  0  0  0  0
    9.2650   -2.5454    2.5378 C   0  0  0  0  0  0  0  0  0  0  0  0
    9.7689   -1.2435    1.9480 C   0  0  0  0  0  0  0  0  0  0  0  0
   10.9057   -1.1653    1.4742 O   0  0  0  0  0  0  0  0  0  0  0  0
    8.9196   -0.1671    2.0985 N   0  0  0  0  0  0  0  0  0  0  0  0
    9.2385    1.1285    1.6255 C   0  0  0  0  0  0  0  0  0  0  0  0
    9.7838    1.3141    0.3535 C   0  0  0  0  0  0  0  0  0  0  0  0
   10.0712    2.5221   -0.1821 N   0  0  0  0  0  0  0  0  0  0  0  0
    9.8329    3.5964    0.5996 C   0  0  0  0  0  0  0  0  0  0  0  0
    9.3125    3.5351    1.8951 C   0  0  0  0  0  0  0  0  0  0  0  0
    9.1358    4.6948    2.6666 C   0  0  0  0  0  0  0  0  0  0  0  0
    8.6611    4.6092    3.9746 C   0  0  0  0  0  0  0  0  0  0  0  0
    8.3594    3.3682    4.5208 C   0  0  0  0  0  0  0  0  0  0  0  0
    8.5174    2.2116    3.7582 C   0  0  0  0  0  0  0  0  0  0  0  0
    8.9924    2.2652    2.4246 C   0  0  0  0  0  0  0  0  0  0  0  0
    7.3301   -2.9153    0.9563 C   0  0  0  0  0  0  0  0  0  0  0  0
    7.3560   -4.5979   -1.7326 C   0  0  0  0  0  0  0  0  0  0  0  0
    9.7472   -7.6165   -1.8866 H   0  0  0  0  0  0  0  0  0  0  0  0
    8.0633   -7.2036   -1.5580 H   0  0  0  0  0  0  0  0  0  0  0  0
    9.4035   -6.2884   -0.7687 H   0  0  0  0  0  0  0  0  0  0  0  0
    6.4524   -3.0618   -5.1562 H   0  0  0  0  0  0  0  0  0  0  0  0
    5.1307   -2.4687   -3.1606 H   0  0  0  0  0  0  0  0  0  0  0  0
    4.6039   -3.7282   -0.7484 H   0  0  0  0  0  0  0  0  0  0  0  0
    4.1131   -3.8481    1.5399 H   0  0  0  0  0  0  0  0  0  0  0  0
    7.2734   -3.1075    4.3515 H   0  0  0  0  0  0  0  0  0  0  0  0
    9.8645   -3.3598    2.1108 H   0  0  0  0  0  0  0  0  0  0  0  0
    9.4692   -2.5239    3.6149 H   0  0  0  0  0  0  0  0  0  0  0  0
    8.1936   -0.2440    2.7984 H   0  0  0  0  0  0  0  0  0  0  0  0
    9.9733    0.4748   -0.3088 H   0  0  0  0  0  0  0  0  0  0  0  0
   10.0991    4.5456    0.1435 H   0  0  0  0  0  0  0  0  0  0  0  0
    9.3864    5.6735    2.2616 H   0  0  0  0  0  0  0  0  0  0  0  0
    8.5427    5.5101    4.5709 H   0  0  0  0  0  0  0  0  0  0  0  0
    8.0170    3.2960    5.5486 H   0  0  0  0  0  0  0  0  0  0  0  0
    8.3060    1.2600    4.2412 H   0  0  0  0  0  0  0  0  0  0  0  0
    8.0044   -2.6633    0.1374 H   0  0  0  0  0  0  0  0  0  0  0  0
    7.5935   -5.0169   -0.7610 H   0  0  0  0  0  0  0  0  0  0  0  0
  1  2  1  0  0  0  0
  1 32  1  0  0  0  0
  1 33  1  0  0  0  0
  1 34  1  0  0  0  0
  2  3  1  0  0  0  0
  3  4  2  0  0  0  0
  3 31  1  0  0  0  0
  4  5  1  0  0  0  0
  4  6  1  0  0  0  0
  6  7  2  0  0  0  0
  6 35  1  0  0  0  0
  7  8  1  0  0  0  0
  7 36  1  0  0  0  0
  8  9  1  0  0  0  0
  8 31  2  0  0  0  0
  9 10  1  0  0  0  0
  9 37  1  0  0  0  0
 10 11  2  0  0  0  0
 10 30  1  0  0  0  0
 11 12  1  0  0  0  0
 11 38  1  0  0  0  0
 12 13  1  0  0  0  0
 12 14  2  0  0  0  0
 14 15  1  0  0  0  0
 14 39  1  0  0  0  0
 15 16  1  0  0  0  0
 15 30  2  0  0  0  0
 16 17  1  0  0  0  0
 16 40  1  0  0  0  0
 16 41  1  0  0  0  0
 17 18  2  0  0  0  0
 17 19  1  0  0  0  0
 19 20  1  0  0  0  0
 19 42  1  0  0  0  0
 20 21  2  0  0  0  0
 20 29  1  0  0  0  0
 21 22  1  0  0  0  0
 21 43  1  0  0  0  0
 22 23  2  0  0  0  0
 23 24  1  0  0  0  0
 23 44  1  0  0  0  0
 24 25  2  0  0  0  0
 24 29  1  0  0  0  0
 25 26  1  0  0  0  0
 25 45  1  0  0  0  0
 26 27  2  0  0  0  0
 26 46  1  0  0  0  0
 27 28  1  0  0  0  0
 27 47  1  0  0  0  0
 28 29  2  0  0  0  0
 28 48  1  0  0  0  0
 30 49  1  0  0  0  0
 31 50  1  0  0  0  0
M  END
$$$$
