
 OpenBabel07202414193D

 37 38  0  0  0  0  0  0  0  0999 V2000
    0.8437    0.1295   -1.3526 F   0  0  0  0  0  0  0  0  0  0  0  0
    0.1767    0.0188   -0.2012 C   0  0  0  0  0  0  0  0  0  0  0  0
   -0.5369    1.1320    0.2423 C   0  0  0  0  0  0  0  0  0  0  0  0
   -1.2945    1.0625    1.4107 C   0  0  0  0  0  0  0  0  0  0  0  0
   -1.3395   -0.1274    2.1350 C   0  0  0  0  0  0  0  0  0  0  0  0
   -0.6028   -1.2348    1.7040 C   0  0  0  0  0  0  0  0  0  0  0  0
    0.1730   -1.1562    0.5362 C   0  0  0  0  0  0  0  0  0  0  0  0
    1.0846   -2.5842    0.0084 S   0  0  0  0  0  0  0  0  0  0  0  0
    0.9529   -3.5704    1.0635 O   0  0  0  0  0  0  0  0  0  0  0  0
    0.6672   -2.9004   -1.3432 O   0  0  0  0  0  0  0  0  0  0  0  0
    2.7522   -2.1376   -0.0054 N   0  0  0  0  0  0  0  0  0  0  0  0
    3.2250   -1.4622    1.2370 C   0  0  0  0  0  0  0  0  0  0  0  0
    4.6186   -1.9005    1.6682 C   0  0  0  0  0  0  0  0  0  0  0  0
    5.7935   -1.5047    0.7765 C   0  0  0  0  0  0  0  0  0  0  0  0
    5.4366   -0.7564   -0.4195 N   0  0  0  0  0  0  0  0  0  0  0  0
    5.5508    0.6382   -0.4023 C   0  0  0  0  0  0  0  0  0  0  0  0
    5.9456    1.2255    0.6071 O   0  0  0  0  0  0  0  0  0  0  0  0
    5.1626    1.3749   -1.6803 C   0  0  0  0  0  0  0  0  0  0  0  0
    5.4506    3.1238   -1.5522 Cl  0  0  0  0  0  0  0  0  0  0  0  0
    4.7482   -1.5283   -1.4559 C   0  0  0  0  0  0  0  0  0  0  0  0
    3.2257   -1.5535   -1.2911 C   0  0  0  0  0  0  0  0  0  0  0  0
   -0.5052    2.0565   -0.3318 H   0  0  0  0  0  0  0  0  0  0  0  0
   -1.8626    1.9285    1.7499 H   0  0  0  0  0  0  0  0  0  0  0  0
   -1.9512   -0.1971    3.0321 H   0  0  0  0  0  0  0  0  0  0  0  0
   -0.6550   -2.1580    2.2776 H   0  0  0  0  0  0  0  0  0  0  0  0
    2.5584   -1.7266    2.0666 H   0  0  0  0  0  0  0  0  0  0  0  0
    3.1627   -0.3756    1.1227 H   0  0  0  0  0  0  0  0  0  0  0  0
    4.6387   -2.9870    1.8164 H   0  0  0  0  0  0  0  0  0  0  0  0
    4.8054   -1.4705    2.6624 H   0  0  0  0  0  0  0  0  0  0  0  0
    6.3315   -2.4047    0.4553 H   0  0  0  0  0  0  0  0  0  0  0  0
    6.5206   -0.9345    1.3680 H   0  0  0  0  0  0  0  0  0  0  0  0
    4.0980    1.2424   -1.8802 H   0  0  0  0  0  0  0  0  0  0  0  0
    5.7572    1.0096   -2.5207 H   0  0  0  0  0  0  0  0  0  0  0  0
    5.1561   -2.5469   -1.4614 H   0  0  0  0  0  0  0  0  0  0  0  0
    4.9855   -1.0951   -2.4327 H   0  0  0  0  0  0  0  0  0  0  0  0
    2.8459   -2.1593   -2.1219 H   0  0  0  0  0  0  0  0  0  0  0  0
    2.8457   -0.5415   -1.3985 H   0  0  0  0  0  0  0  0  0  0  0  0
  1  2  1  0  0  0  0
  2  3  1  0  0  0  0
  2  7  2  0  0  0  0
  3  4  2  0  0  0  0
  3 22  1  0  0  0  0
  4  5  1  0  0  0  0
  4 23  1  0  0  0  0
  5  6  2  0  0  0  0
  5 24  1  0  0  0  0
  6  7  1  0  0  0  0
  6 25  1  0  0  0  0
  7  8  1  0  0  0  0
  8  9  2  0  0  0  0
  8 10  2  0  0  0  0
  8 11  1  0  0  0  0
 11 12  1  0  0  0  0
 11 21  1  0  0  0  0
 12 13  1  0  0  0  0
 12 26  1  0  0  0  0
 12 27  1  0  0  0  0
 13 14  1  0  0  0  0
 13 28  1  0  0  0  0
 13 29  1  0  0  0  0
 14 15  1  0  0  0  0
 14 30  1  0  0  0  0
 14 31  1  0  0  0  0
 15 16  1  0  0  0  0
 15 20  1  0  0  0  0
 16 17  2  0  0  0  0
 16 18  1  0  0  0  0
 18 19  1  0  0  0  0
 18 32  1  0  0  0  0
 18 33  1  0  0  0  0
 20 21  1  0  0  0  0
 20 34  1  0  0  0  0
 20 35  1  0  0  0  0
 21 36  1  0  0  0  0
 21 37  1  0  0  0  0
M  END
$$$$
