
 OpenBabel07202414203D

 34 36  0  0  1  0  0  0  0  0999 V2000
    4.1732    4.0485    6.4516 O   0  0  0  0  0  0  0  0  0  0  0  0
    5.3806    4.5080    7.0309 C   0  0  0  0  0  0  0  0  0  0  0  0
    6.5807    3.7348    6.5374 C   0  0  0  0  0  0  0  0  0  0  0  0
    7.6648    3.6192    7.4223 C   0  0  0  0  0  0  0  0  0  0  0  0
    8.8277    3.0029    7.0022 C   0  0  0  0  0  0  0  0  0  0  0  0
    8.9959    2.5035    5.7622 N   0  0  0  0  0  0  0  0  0  0  0  0
    7.9508    2.6283    4.9110 C   0  0  0  0  0  0  0  0  0  0  0  0
    6.7379    3.2361    5.2259 C   0  0  0  0  0  0  0  0  0  0  0  0
    5.6670    3.3179    4.3049 N   0  0  0  0  0  0  0  0  0  0  0  0
    5.7062    3.0546    2.9418 C   0  0  0  0  0  0  0  0  0  0  0  0
    6.7304    2.8564    2.2894 O   0  0  0  0  0  0  0  0  0  0  0  0
    4.3459    3.0242    2.2331 C   0  0  2  0  0  0  0  0  0  0  0  0
    3.5714    4.3124    2.4956 C   0  0  0  0  0  0  0  0  0  0  0  0
    2.7541    4.1173    3.6833 O   0  0  0  0  0  0  0  0  0  0  0  0
    2.6455    2.7615    3.8037 C   0  0  0  0  0  0  0  0  0  0  0  0
    2.0174    2.1123    4.8474 C   0  0  0  0  0  0  0  0  0  0  0  0
    2.1638    0.7250    4.9443 C   0  0  0  0  0  0  0  0  0  0  0  0
    2.8784    0.0105    3.9669 C   0  0  0  0  0  0  0  0  0  0  0  0
    3.0916   -1.6861    4.1451 Cl  0  0  0  0  0  0  0  0  0  0  0  0
    3.5053    0.6708    2.9117 C   0  0  0  0  0  0  0  0  0  0  0  0
    3.4304    2.0539    2.8960 C   0  0  0  0  0  0  0  0  0  0  0  0
    3.4498    4.4438    6.9708 H   0  0  0  0  0  0  0  0  0  0  0  0
    5.2833    4.4014    8.1171 H   0  0  0  0  0  0  0  0  0  0  0  0
    5.5071    5.5706    6.7941 H   0  0  0  0  0  0  0  0  0  0  0  0
    7.6126    4.0163    8.4327 H   0  0  0  0  0  0  0  0  0  0  0  0
    9.6836    2.8970    7.6604 H   0  0  0  0  0  0  0  0  0  0  0  0
    8.1374    2.1878    3.9379 H   0  0  0  0  0  0  0  0  0  0  0  0
    4.7763    3.5794    4.7359 H   0  0  0  0  0  0  0  0  0  0  0  0
    4.4825    2.8372    1.1642 H   0  0  0  0  0  0  0  0  0  0  0  0
    2.8985    4.5535    1.6639 H   0  0  0  0  0  0  0  0  0  0  0  0
    4.2321    5.1723    2.6583 H   0  0  0  0  0  0  0  0  0  0  0  0
    1.5134    2.6786    5.6195 H   0  0  0  0  0  0  0  0  0  0  0  0
    1.7572    0.2039    5.8076 H   0  0  0  0  0  0  0  0  0  0  0  0
    4.1186    0.1303    2.1972 H   0  0  0  0  0  0  0  0  0  0  0  0
  1  2  1  0  0  0  0
  1 22  1  0  0  0  0
  2  3  1  0  0  0  0
  2 23  1  0  0  0  0
  2 24  1  0  0  0  0
  3  4  1  0  0  0  0
  3  8  2  0  0  0  0
  4  5  2  0  0  0  0
  4 25  1  0  0  0  0
  5  6  1  0  0  0  0
  5 26  1  0  0  0  0
  6  7  2  0  0  0  0
  7  8  1  0  0  0  0
  7 27  1  0  0  0  0
  8  9  1  0  0  0  0
  9 10  1  0  0  0  0
  9 28  1  0  0  0  0
 10 11  2  0  0  0  0
 12 13  1  0  0  0  0
 12 21  1  0  0  0  0
 12 10  1  0  0  0  0
 12 29  1  6  0  0  0
 13 14  1  0  0  0  0
 13 30  1  0  0  0  0
 13 31  1  0  0  0  0
 14 15  1  0  0  0  0
 15 16  1  0  0  0  0
 15 21  2  0  0  0  0
 16 17  2  0  0  0  0
 16 32  1  0  0  0  0
 17 18  1  0  0  0  0
 17 33  1  0  0  0  0
 18 19  1  0  0  0  0
 18 20  2  0  0  0  0
 20 21  1  0  0  0  0
 20 34  1  0  0  0  0
M  END
$$$$
