
 OpenBabel07202414193D

 50 53  0  0  1  0  0  0  0  0999 V2000
    1.3412   -0.7346    0.6005 O   0  0  0  0  0  0  0  0  0  0  0  0
    2.2768   -0.0706    0.1450 C   0  0  0  0  0  0  0  0  0  0  0  0
    2.6353   -0.2049   -1.3270 C   0  0  0  0  0  0  0  0  0  0  0  0
    1.8831    0.7231   -2.2587 C   0  0  0  0  0  0  0  0  0  0  0  0
    0.8756    1.5681   -1.7838 C   0  0  0  0  0  0  0  0  0  0  0  0
    0.1694    2.4294   -2.5468 N   0  0  0  0  0  0  0  0  0  0  0  0
    0.4644    2.4443   -3.8620 C   0  0  0  0  0  0  0  0  0  0  0  0
    1.4384    1.6490   -4.4667 C   0  0  0  0  0  0  0  0  0  0  0  0
    1.6907    1.7257   -5.8478 C   0  0  0  0  0  0  0  0  0  0  0  0
    2.6700    0.9259   -6.4349 C   0  0  0  0  0  0  0  0  0  0  0  0
    3.3969    0.0418   -5.6497 C   0  0  0  0  0  0  0  0  0  0  0  0
    3.1495   -0.0443   -4.2767 C   0  0  0  0  0  0  0  0  0  0  0  0
    2.1692    0.7605   -3.6480 C   0  0  0  0  0  0  0  0  0  0  0  0
    2.9857    0.8400    0.9256 N   0  0  0  0  0  0  0  0  0  0  0  0
    4.0668    1.6916    0.4332 C   0  0  0  0  0  0  0  0  0  0  0  0
    5.4191    1.0104    0.6155 C   0  0  0  0  0  0  0  0  0  0  0  0
    5.9282    0.9832    2.0587 C   0  0  0  0  0  0  0  0  0  0  0  0
    4.9683    0.3759    3.1057 C   0  0  1  0  0  0  0  0  0  0  0  0
    5.7106    0.2721    4.4489 C   0  0  0  0  0  0  0  0  0  0  0  0
    6.9338   -0.6843    4.5191 C   0  0  0  0  0  0  0  0  0  0  0  0
    6.4840   -1.0693    5.9392 C   0  0  0  0  0  0  0  0  0  0  0  0
    5.0638   -0.6242    5.5459 C   0  0  0  0  0  0  0  0  0  0  0  0
    3.7249    1.2637    3.3075 C   0  0  0  0  0  0  0  0  0  0  0  0
    2.5895    0.9882    2.3221 C   0  0  0  0  0  0  0  0  0  0  0  0
    2.4134   -1.2435   -1.6094 H   0  0  0  0  0  0  0  0  0  0  0  0
    3.7135   -0.0808   -1.4564 H   0  0  0  0  0  0  0  0  0  0  0  0
    0.5854    1.5919   -0.7365 H   0  0  0  0  0  0  0  0  0  0  0  0
   -0.1314    3.1422   -4.4416 H   0  0  0  0  0  0  0  0  0  0  0  0
    1.1246    2.4107   -6.4752 H   0  0  0  0  0  0  0  0  0  0  0  0
    2.8600    0.9929   -7.5028 H   0  0  0  0  0  0  0  0  0  0  0  0
    4.1596   -0.5879   -6.1032 H   0  0  0  0  0  0  0  0  0  0  0  0
    3.7370   -0.7522   -3.7020 H   0  0  0  0  0  0  0  0  0  0  0  0
    4.0283    2.6629    0.9387 H   0  0  0  0  0  0  0  0  0  0  0  0
    3.9128    1.9037   -0.6284 H   0  0  0  0  0  0  0  0  0  0  0  0
    6.1617    1.5431    0.0074 H   0  0  0  0  0  0  0  0  0  0  0  0
    5.3815   -0.0163    0.2316 H   0  0  0  0  0  0  0  0  0  0  0  0
    6.1989    2.0038    2.3598 H   0  0  0  0  0  0  0  0  0  0  0  0
    6.8687    0.4184    2.0559 H   0  0  0  0  0  0  0  0  0  0  0  0
    4.6659   -0.6281    2.7822 H   0  0  0  0  0  0  0  0  0  0  0  0
    5.9613    1.2703    4.8403 H   0  0  0  0  0  0  0  0  0  0  0  0
    7.9102   -0.1962    4.4550 H   0  0  0  0  0  0  0  0  0  0  0  0
    6.9036   -1.5179    3.8087 H   0  0  0  0  0  0  0  0  0  0  0  0
    6.9365   -0.4577    6.7274 H   0  0  0  0  0  0  0  0  0  0  0  0
    6.5947   -2.1250    6.1981 H   0  0  0  0  0  0  0  0  0  0  0  0
    4.5115   -0.0914    6.3257 H   0  0  0  0  0  0  0  0  0  0  0  0
    4.4401   -1.4403    5.1640 H   0  0  0  0  0  0  0  0  0  0  0  0
    4.0127    2.3220    3.2605 H   0  0  0  0  0  0  0  0  0  0  0  0
    3.3121    1.1248    4.3150 H   0  0  0  0  0  0  0  0  0  0  0  0
    1.8728    1.8179    2.3593 H   0  0  0  0  0  0  0  0  0  0  0  0
    2.0497    0.0950    2.6544 H   0  0  0  0  0  0  0  0  0  0  0  0
  1  2  2  0  0  0  0
  2  3  1  0  0  0  0
  2 14  1  0  0  0  0
  3  4  1  0  0  0  0
  3 25  1  0  0  0  0
  3 26  1  0  0  0  0
  4  5  1  0  0  0  0
  4 13  2  0  0  0  0
  5  6  2  0  0  0  0
  5 27  1  0  0  0  0
  6  7  1  0  0  0  0
  7  8  2  0  0  0  0
  7 28  1  0  0  0  0
  8  9  1  0  0  0  0
  8 13  1  0  0  0  0
  9 10  2  0  0  0  0
  9 29  1  0  0  0  0
 10 11  1  0  0  0  0
 10 30  1  0  0  0  0
 11 12  2  0  0  0  0
 11 31  1  0  0  0  0
 12 13  1  0  0  0  0
 12 32  1  0  0  0  0
 14 15  1  0  0  0  0
 14 24  1  0  0  0  0
 15 16  1  0  0  0  0
 15 33  1  0  0  0  0
 15 34  1  0  0  0  0
 16 17  1  0  0  0  0
 16 35  1  0  0  0  0
 16 36  1  0  0  0  0
 17 18  1  0  0  0  0
 17 37  1  0  0  0  0
 17 38  1  0  0  0  0
 18 19  1  0  0  0  0
 18 23  1  0  0  0  0
 18 39  1  6  0  0  0
 19 20  1  0  0  0  0
 19 22  1  0  0  0  0
 19 40  1  0  0  0  0
 20 21  1  0  0  0  0
 20 41  1  0  0  0  0
 20 42  1  0  0  0  0
 21 22  1  0  0  0  0
 21 43  1  0  0  0  0
 21 44  1  0  0  0  0
 22 45  1  0  0  0  0
 22 46  1  0  0  0  0
 23 24  1  0  0  0  0
 23 47  1  0  0  0  0
 23 48  1  0  0  0  0
 24 49  1  0  0  0  0
 24 50  1  0  0  0  0
M  END
$$$$
