
 OpenBabel07202414203D

 59 63  0  0  1  0  0  0  0  0999 V2000
    2.3929   -3.4319    1.2307 O   0  0  0  0  0  0  0  0  0  0  0  0
    1.6021   -3.2963    2.4044 C   0  0  0  0  0  0  0  0  0  0  0  0
    1.9448   -2.0472    3.2153 C   0  0  3  0  0  0  0  0  0  0  0  0
    1.2640   -2.0749    4.5777 C   0  0  0  0  0  0  0  0  0  0  0  0
    1.6108   -0.7181    5.1302 C   0  0  0  0  0  0  0  0  0  0  0  0
    1.6028    0.2001    3.9153 C   0  0  0  0  0  0  0  0  0  0  0  0
    1.6395   -0.6492    2.6562 N   0  0  0  0  0  0  0  0  0  0  0  0
    0.2874   -0.4707    1.6098 S   0  0  0  0  0  0  0  0  0  0  0  0
    0.4210   -1.3787    0.5160 O   0  0  0  0  0  0  0  0  0  0  0  0
   -0.8785   -0.5003    2.4686 O   0  0  0  0  0  0  0  0  0  0  0  0
    0.3558    1.1011    0.9664 N   0  0  0  0  0  0  0  0  0  0  0  0
    0.7060    1.2862   -0.4732 C   0  0  0  0  0  0  0  0  0  0  0  0
    0.1841    2.6288   -1.0374 C   0  0  3  0  0  0  0  0  0  0  0  0
   -1.3289    2.6113   -1.3904 C   0  0  0  0  0  0  0  0  0  0  0  0
   -1.7023    2.9702   -2.5049 O   0  0  0  0  0  0  0  0  0  0  0  0
   -2.1551    2.2058   -0.3693 N   0  0  0  0  0  0  0  0  0  0  0  0
   -3.5292    1.8265   -0.4726 C   0  0  0  0  0  0  0  0  0  0  0  0
   -4.2238    1.8179   -1.6859 C   0  0  0  0  0  0  0  0  0  0  0  0
   -5.3867    1.1521   -1.8829 N   0  0  0  0  0  0  0  0  0  0  0  0
   -5.9498    0.5883   -0.8004 C   0  0  0  0  0  0  0  0  0  0  0  0
   -5.5053    0.7868    0.5034 C   0  0  0  0  0  0  0  0  0  0  0  0
   -6.3108    0.4559    1.6043 C   0  0  0  0  0  0  0  0  0  0  0  0
   -5.8636    0.6822    2.9024 C   0  0  0  0  0  0  0  0  0  0  0  0
   -4.5690    1.1418    3.1078 C   0  0  0  0  0  0  0  0  0  0  0  0
   -3.7524    1.4535    2.0150 C   0  0  0  0  0  0  0  0  0  0  0  0
   -4.2249    1.3582    0.6791 C   0  0  0  0  0  0  0  0  0  0  0  0
    0.5844    3.7919   -0.1582 C   0  0  0  0  0  0  0  0  0  0  0  0
    0.8637    5.0549   -0.7068 C   0  0  0  0  0  0  0  0  0  0  0  0
    1.2922    6.1012    0.1114 C   0  0  0  0  0  0  0  0  0  0  0  0
    1.7483    7.6090   -0.5815 Cl  0  0  0  0  0  0  0  0  0  0  0  0
    1.4050    5.9225    1.4882 C   0  0  0  0  0  0  0  0  0  0  0  0
    1.1317    4.6738    2.0385 C   0  0  0  0  0  0  0  0  0  0  0  0
    0.7553    3.5953    1.2188 C   0  0  0  0  0  0  0  0  0  0  0  0
    0.6778    2.2260    1.8460 C   0  0  0  0  0  0  0  0  0  0  0  0
    2.9411   -2.6353    1.1300 H   0  0  0  0  0  0  0  0  0  0  0  0
    1.8437   -4.1750    3.0152 H   0  0  0  0  0  0  0  0  0  0  0  0
    0.5388   -3.3718    2.1598 H   0  0  0  0  0  0  0  0  0  0  0  0
    3.0362   -2.0520    3.3574 H   0  0  0  0  0  0  0  0  0  0  0  0
    1.6332   -2.8812    5.2198 H   0  0  0  0  0  0  0  0  0  0  0  0
    0.1778   -2.1858    4.4805 H   0  0  0  0  0  0  0  0  0  0  0  0
    2.6046   -0.7289    5.5932 H   0  0  0  0  0  0  0  0  0  0  0  0
    0.8981   -0.3899    5.8948 H   0  0  0  0  0  0  0  0  0  0  0  0
    2.4865    0.8461    3.9293 H   0  0  0  0  0  0  0  0  0  0  0  0
    0.7130    0.8260    3.9764 H   0  0  0  0  0  0  0  0  0  0  0  0
    0.2887    0.4751   -1.0800 H   0  0  0  0  0  0  0  0  0  0  0  0
    1.7959    1.2612   -0.5679 H   0  0  0  0  0  0  0  0  0  0  0  0
    0.6869    2.7577   -2.0059 H   0  0  0  0  0  0  0  0  0  0  0  0
   -1.7106    1.9652    0.4998 H   0  0  0  0  0  0  0  0  0  0  0  0
   -3.8717    2.3369   -2.5661 H   0  0  0  0  0  0  0  0  0  0  0  0
   -6.8027   -0.0568   -1.0138 H   0  0  0  0  0  0  0  0  0  0  0  0
   -7.3249    0.0862    1.4533 H   0  0  0  0  0  0  0  0  0  0  0  0
   -6.5214    0.5041    3.7476 H   0  0  0  0  0  0  0  0  0  0  0  0
   -4.1974    1.2830    4.1185 H   0  0  0  0  0  0  0  0  0  0  0  0
   -2.7569    1.8299    2.2328 H   0  0  0  0  0  0  0  0  0  0  0  0
    0.7901    5.2149   -1.7824 H   0  0  0  0  0  0  0  0  0  0  0  0
    1.7351    6.7364    2.1283 H   0  0  0  0  0  0  0  0  0  0  0  0
    1.2635    4.5312    3.1101 H   0  0  0  0  0  0  0  0  0  0  0  0
   -0.0686    2.2743    2.6452 H   0  0  0  0  0  0  0  0  0  0  0  0
    1.6802    2.0619    2.2491 H   0  0  0  0  0  0  0  0  0  0  0  0
  1  2  1  0  0  0  0
  1 35  1  0  0  0  0
  2  3  1  0  0  0  0
  2 36  1  0  0  0  0
  2 37  1  0  0  0  0
  3  4  1  0  0  0  0
  3  7  1  0  0  0  0
  3 38  1  0  0  0  0
  4  5  1  0  0  0  0
  4 39  1  0  0  0  0
  4 40  1  0  0  0  0
  5  6  1  0  0  0  0
  5 41  1  0  0  0  0
  5 42  1  0  0  0  0
  6  7  1  0  0  0  0
  6 43  1  0  0  0  0
  6 44  1  0  0  0  0
  7  8  1  0  0  0  0
  8  9  2  0  0  0  0
  8 10  2  0  0  0  0
  8 11  1  0  0  0  0
 11 12  1  0  0  0  0
 11 34  1  0  0  0  0
 12 13  1  0  0  0  0
 12 45  1  0  0  0  0
 12 46  1  0  0  0  0
 13 14  1  0  0  0  0
 13 27  1  0  0  0  0
 13 47  1  0  0  0  0
 14 15  2  0  0  0  0
 14 16  1  0  0  0  0
 16 17  1  0  0  0  0
 16 48  1  0  0  0  0
 17 18  1  0  0  0  0
 17 26  2  0  0  0  0
 18 19  2  0  0  0  0
 18 49  1  0  0  0  0
 19 20  1  0  0  0  0
 20 21  2  0  0  0  0
 20 50  1  0  0  0  0
 21 22  1  0  0  0  0
 21 26  1  0  0  0  0
 22 23  2  0  0  0  0
 22 51  1  0  0  0  0
 23 24  1  0  0  0  0
 23 52  1  0  0  0  0
 24 25  2  0  0  0  0
 24 53  1  0  0  0  0
 25 26  1  0  0  0  0
 25 54  1  0  0  0  0
 27 28  1  0  0  0  0
 27 33  2  0  0  0  0
 28 29  2  0  0  0  0
 28 55  1  0  0  0  0
 29 30  1  0  0  0  0
 29 31  1  0  0  0  0
 31 32  2  0  0  0  0
 31 56  1  0  0  0  0
 32 33  1  0  0  0  0
 32 57  1  0  0  0  0
 33 34  1  0  0  0  0
 34 58  1  0  0  0  0
 34 59  1  0  0  0  0
M  END
$$$$
