
 OpenBabel07202414183D

 80 86  0  0  1  0  0  0  0  0999 V2000
   -0.2467   -1.7239   -2.4785 F   0  0  0  0  0  0  0  0  0  0  0  0
    1.1000   -1.8001   -2.3067 C   0  0  0  0  0  0  0  0  0  0  0  0
    1.2961   -2.3608   -1.0865 F   0  0  0  0  0  0  0  0  0  0  0  0
    1.6764   -0.3992   -2.3148 C   0  0  0  0  0  0  0  0  0  0  0  0
    1.5860    0.1761   -3.7210 C   0  0  0  0  0  0  0  0  0  0  0  0
    2.2447   -0.6721   -4.7255 N   0  0  0  0  0  0  0  0  0  0  0  0
    3.7063   -0.7478   -4.5702 C   0  0  0  0  0  0  0  0  0  0  0  0
    4.4171    0.6041   -4.6813 C   0  0  0  0  0  0  0  0  0  0  0  0
    5.8043    0.3474   -4.5006 O   0  0  0  0  0  0  0  0  0  0  0  0
    6.6434    1.2230   -5.1151 C   0  0  0  0  0  0  0  0  0  0  0  0
    6.3884    2.5574   -5.4025 C   0  0  0  0  0  0  0  0  0  0  0  0
    7.3898    3.3418   -5.9818 C   0  0  0  0  0  0  0  0  0  0  0  0
    8.6432    2.7866   -6.2934 C   0  0  0  0  0  0  0  0  0  0  0  0
    9.7109    3.5389   -6.7870 C   0  0  0  0  0  0  0  0  0  0  0  0
   10.9477    3.0442   -7.0201 N   0  0  0  0  0  0  0  0  0  0  0  0
   11.1073    1.7103   -6.8393 C   0  0  0  0  0  0  0  0  0  0  0  0
   10.0801    0.8428   -6.4666 C   0  0  0  0  0  0  0  0  0  0  0  0
   10.2514   -0.5395   -6.6878 N   0  0  0  0  0  0  0  0  0  0  0  0
    9.2820   -1.4430   -7.2176 C   0  0  0  0  0  0  0  0  0  0  0  0
   10.1186   -2.5970   -7.7625 C   0  0  0  0  0  0  0  0  0  0  0  0
   11.5272   -2.4590   -7.0913 C   0  0  3  0  0  0  0  0  0  0  0  0
   11.8838   -3.7530   -6.3409 C   0  0  0  0  0  0  0  0  0  0  0  0
   13.3403   -3.9617   -6.1064 N   0  0  0  0  0  0  0  0  0  0  0  0
   14.1793   -3.0296   -4.9495 S   0  0  0  0  0  0  0  0  0  0  0  0
   15.5063   -3.6191   -4.8922 O   0  0  0  0  0  0  0  0  0  0  0  0
   14.0505   -1.6426   -5.3045 O   0  0  0  0  0  0  0  0  0  0  0  0
   13.3373   -3.4268   -3.3831 C   0  0  0  0  0  0  0  0  0  0  0  0
   13.9358   -2.4876   -2.3573 C   0  0  0  0  0  0  0  0  0  0  0  0
   15.3605   -2.5929   -2.1633 C   0  0  0  0  0  0  0  0  0  0  0  0
   16.4930   -2.6708   -1.9408 N   0  0  0  0  0  0  0  0  0  0  0  0
   13.2647   -1.1498   -2.1320 C   0  0  0  0  0  0  0  0  0  0  0  0
   13.1833   -2.1825   -1.0528 C   0  0  0  0  0  0  0  0  0  0  0  0
   14.0652   -4.0243   -7.4041 C   0  0  0  0  0  0  0  0  0  0  0  0
   13.7730   -2.8394   -8.2949 C   0  0  0  0  0  0  0  0  0  0  0  0
   14.7156   -2.4914   -9.2813 C   0  0  0  0  0  0  0  0  0  0  0  0
   14.5016   -1.3990  -10.1198 C   0  0  0  0  0  0  0  0  0  0  0  0
   13.3358   -0.6593   -9.9903 C   0  0  0  0  0  0  0  0  0  0  0  0
   13.0530    0.6934  -11.0142 Cl  0  0  0  0  0  0  0  0  0  0  0  0
   12.3823   -1.0065   -9.0345 C   0  0  0  0  0  0  0  0  0  0  0  0
   12.5791   -2.0957   -8.1617 C   0  0  0  0  0  0  0  0  0  0  0  0
   11.2545   -1.3005   -6.1189 C   0  0  0  0  0  0  0  0  0  0  0  0
   11.6298   -1.1560   -4.9677 O   0  0  0  0  0  0  0  0  0  0  0  0
    8.8623    1.4116   -6.0872 C   0  0  0  0  0  0  0  0  0  0  0  0
    7.8729    0.6709   -5.4330 C   0  0  0  0  0  0  0  0  0  0  0  0
    1.6355   -2.0124   -4.7344 C   0  0  0  0  0  0  0  0  0  0  0  0
    1.6845   -2.7026   -3.3752 C   0  0  0  0  0  0  0  0  0  0  0  0
    2.7119   -0.4097   -1.9545 H   0  0  0  0  0  0  0  0  0  0  0  0
    1.1160    0.2384   -1.6226 H   0  0  0  0  0  0  0  0  0  0  0  0
    1.9867    1.1950   -3.7406 H   0  0  0  0  0  0  0  0  0  0  0  0
    0.5313    0.2922   -4.0025 H   0  0  0  0  0  0  0  0  0  0  0  0
    4.1178   -1.3980   -5.3554 H   0  0  0  0  0  0  0  0  0  0  0  0
    4.0043   -1.2237   -3.6277 H   0  0  0  0  0  0  0  0  0  0  0  0
    4.1067    1.2907   -3.8888 H   0  0  0  0  0  0  0  0  0  0  0  0
    4.2029    1.0386   -5.6648 H   0  0  0  0  0  0  0  0  0  0  0  0
    5.4399    3.0185   -5.1481 H   0  0  0  0  0  0  0  0  0  0  0  0
    7.1937    4.3957   -6.1689 H   0  0  0  0  0  0  0  0  0  0  0  0
    9.6058    4.6024   -6.9913 H   0  0  0  0  0  0  0  0  0  0  0  0
   12.0958    1.3312   -7.0937 H   0  0  0  0  0  0  0  0  0  0  0  0
    8.6374   -0.9821   -7.9693 H   0  0  0  0  0  0  0  0  0  0  0  0
    8.6772   -1.8376   -6.3930 H   0  0  0  0  0  0  0  0  0  0  0  0
   10.1679   -2.5344   -8.8551 H   0  0  0  0  0  0  0  0  0  0  0  0
    9.6278   -3.5495   -7.5320 H   0  0  0  0  0  0  0  0  0  0  0  0
   11.5691   -4.6096   -6.9600 H   0  0  0  0  0  0  0  0  0  0  0  0
   11.3223   -3.8715   -5.4096 H   0  0  0  0  0  0  0  0  0  0  0  0
   13.5593   -4.4765   -3.1598 H   0  0  0  0  0  0  0  0  0  0  0  0
   12.2572   -3.2986   -3.4852 H   0  0  0  0  0  0  0  0  0  0  0  0
   12.3416   -0.9168   -2.6515 H   0  0  0  0  0  0  0  0  0  0  0  0
   13.9100   -0.2873   -2.0077 H   0  0  0  0  0  0  0  0  0  0  0  0
   12.2134   -2.6187   -0.8498 H   0  0  0  0  0  0  0  0  0  0  0  0
   13.7649   -1.9938   -0.1518 H   0  0  0  0  0  0  0  0  0  0  0  0
   13.7725   -4.9441   -7.9261 H   0  0  0  0  0  0  0  0  0  0  0  0
   15.1444   -4.1142   -7.2355 H   0  0  0  0  0  0  0  0  0  0  0  0
   15.6385   -3.0602   -9.3868 H   0  0  0  0  0  0  0  0  0  0  0  0
   15.2474   -1.1275  -10.8615 H   0  0  0  0  0  0  0  0  0  0  0  0
   11.4788   -0.4062   -8.9831 H   0  0  0  0  0  0  0  0  0  0  0  0
    8.0647   -0.3458   -5.1053 H   0  0  0  0  0  0  0  0  0  0  0  0
    2.1169   -2.6421   -5.4930 H   0  0  0  0  0  0  0  0  0  0  0  0
    0.5907   -1.9164   -5.0572 H   0  0  0  0  0  0  0  0  0  0  0  0
    2.7117   -2.9812   -3.1131 H   0  0  0  0  0  0  0  0  0  0  0  0
    1.1143   -3.6369   -3.4214 H   0  0  0  0  0  0  0  0  0  0  0  0
  1  2  1  0  0  0  0
  2  3  1  0  0  0  0
  2  4  1  0  0  0  0
  2 46  1  0  0  0  0
  4  5  1  0  0  0  0
  4 47  1  0  0  0  0
  4 48  1  0  0  0  0
  5  6  1  0  0  0  0
  5 49  1  0  0  0  0
  5 50  1  0  0  0  0
  6  7  1  0  0  0  0
  6 45  1  0  0  0  0
  7  8  1  0  0  0  0
  7 51  1  0  0  0  0
  7 52  1  0  0  0  0
  8  9  1  0  0  0  0
  8 53  1  0  0  0  0
  8 54  1  0  0  0  0
  9 10  1  0  0  0  0
 10 11  1  0  0  0  0
 10 44  2  0  0  0  0
 11 12  2  0  0  0  0
 11 55  1  0  0  0  0
 12 13  1  0  0  0  0
 12 56  1  0  0  0  0
 13 14  1  0  0  0  0
 13 43  2  0  0  0  0
 14 15  2  0  0  0  0
 14 57  1  0  0  0  0
 15 16  1  0  0  0  0
 16 17  2  0  0  0  0
 16 58  1  0  0  0  0
 17 18  1  0  0  0  0
 17 43  1  0  0  0  0
 18 19  1  0  0  0  0
 18 41  1  0  0  0  0
 19 20  1  0  0  0  0
 19 59  1  0  0  0  0
 19 60  1  0  0  0  0
 20 21  1  0  0  0  0
 20 61  1  0  0  0  0
 20 62  1  0  0  0  0
 21 22  1  0  0  0  0
 21 40  1  0  0  0  0
 21 41  1  0  0  0  0
 22 23  1  0  0  0  0
 22 63  1  0  0  0  0
 22 64  1  0  0  0  0
 23 24  1  0  0  0  0
 23 33  1  0  0  0  0
 24 25  2  0  0  0  0
 24 26  2  0  0  0  0
 24 27  1  0  0  0  0
 27 28  1  0  0  0  0
 27 65  1  0  0  0  0
 27 66  1  0  0  0  0
 28 29  1  0  0  0  0
 28 31  1  0  0  0  0
 28 32  1  0  0  0  0
 29 30  3  0  0  0  0
 31 32  1  0  0  0  0
 31 67  1  0  0  0  0
 31 68  1  0  0  0  0
 32 69  1  0  0  0  0
 32 70  1  0  0  0  0
 33 34  1  0  0  0  0
 33 71  1  0  0  0  0
 33 72  1  0  0  0  0
 34 35  1  0  0  0  0
 34 40  2  0  0  0  0
 35 36  2  0  0  0  0
 35 73  1  0  0  0  0
 36 37  1  0  0  0  0
 36 74  1  0  0  0  0
 37 38  1  0  0  0  0
 37 39  2  0  0  0  0
 39 40  1  0  0  0  0
 39 75  1  0  0  0  0
 41 42  2  0  0  0  0
 43 44  1  0  0  0  0
 44 76  1  0  0  0  0
 45 46  1  0  0  0  0
 45 77  1  0  0  0  0
 45 78  1  0  0  0  0
 46 79  1  0  0  0  0
 46 80  1  0  0  0  0
M  END
$$$$
