
 OpenBabel07202414153D

 41 43  0  0  0  0  0  0  0  0999 V2000
    1.0910    0.4276    0.6879 C   0  0  0  0  0  0  0  0  0  0  0  0
    2.7918    0.9111    0.7938 S   0  0  0  0  0  0  0  0  0  0  0  0
    3.2763    1.1337   -0.5546 O   0  0  0  0  0  0  0  0  0  0  0  0
    2.9031    1.9299    1.8207 O   0  0  0  0  0  0  0  0  0  0  0  0
    3.3915   -0.5019    1.3637 O   0  0  0  0  0  0  0  0  0  0  0  0
    4.7365   -0.6652    1.6211 C   0  0  0  0  0  0  0  0  0  0  0  0
    5.6910    0.3253    1.4200 C   0  0  0  0  0  0  0  0  0  0  0  0
    7.0286    0.0643    1.6954 C   0  0  0  0  0  0  0  0  0  0  0  0
    7.4340   -1.1887    2.1713 C   0  0  0  0  0  0  0  0  0  0  0  0
    8.7825   -1.4184    2.4237 C   0  0  0  0  0  0  0  0  0  0  0  0
    9.2872   -2.5812    2.8659 N   0  0  0  0  0  0  0  0  0  0  0  0
    8.3939   -3.5679    3.0999 C   0  0  0  0  0  0  0  0  0  0  0  0
    7.0087   -3.4666    2.9149 C   0  0  0  0  0  0  0  0  0  0  0  0
    6.1425   -4.5620    3.2030 N   0  0  0  0  0  0  0  0  0  0  0  0
    6.4913   -5.6950    3.9302 C   0  0  0  0  0  0  0  0  0  0  0  0
    7.5586   -5.8748    4.5115 O   0  0  0  0  0  0  0  0  0  0  0  0
    5.4023   -6.7532    4.0026 C   0  0  0  0  0  0  0  0  0  0  0  0
    4.4288   -6.5190    5.1309 C   0  0  0  0  0  0  0  0  0  0  0  0
    4.8778   -6.4000    6.4559 C   0  0  0  0  0  0  0  0  0  0  0  0
    3.9758   -6.1585    7.4942 C   0  0  0  0  0  0  0  0  0  0  0  0
    2.6130   -6.0490    7.2224 C   0  0  0  0  0  0  0  0  0  0  0  0
    2.1573   -6.2002    5.9151 C   0  0  0  0  0  0  0  0  0  0  0  0
    0.4746   -6.0828    5.5754 Cl  0  0  0  0  0  0  0  0  0  0  0  0
    3.0539   -6.4396    4.8728 C   0  0  0  0  0  0  0  0  0  0  0  0
    6.4991   -2.2295    2.4041 C   0  0  0  0  0  0  0  0  0  0  0  0
    5.1343   -1.9229    2.1114 C   0  0  0  0  0  0  0  0  0  0  0  0
    0.5149    1.3001    0.3675 H   0  0  0  0  0  0  0  0  0  0  0  0
    0.7508    0.1006    1.6717 H   0  0  0  0  0  0  0  0  0  0  0  0
    0.9943   -0.3712   -0.0491 H   0  0  0  0  0  0  0  0  0  0  0  0
    5.4428    1.3157    1.0499 H   0  0  0  0  0  0  0  0  0  0  0  0
    7.7566    0.8576    1.5308 H   0  0  0  0  0  0  0  0  0  0  0  0
    9.5294   -0.6439    2.2643 H   0  0  0  0  0  0  0  0  0  0  0  0
    8.8734   -4.4835    3.4288 H   0  0  0  0  0  0  0  0  0  0  0  0
    5.1672   -4.4588    2.9609 H   0  0  0  0  0  0  0  0  0  0  0  0
    5.8825   -7.7309    4.1384 H   0  0  0  0  0  0  0  0  0  0  0  0
    4.8874   -6.7993    3.0360 H   0  0  0  0  0  0  0  0  0  0  0  0
    5.9393   -6.4883    6.6906 H   0  0  0  0  0  0  0  0  0  0  0  0
    4.3383   -6.0532    8.5143 H   0  0  0  0  0  0  0  0  0  0  0  0
    1.9154   -5.8517    8.0317 H   0  0  0  0  0  0  0  0  0  0  0  0
    2.6762   -6.5668    3.8614 H   0  0  0  0  0  0  0  0  0  0  0  0
    4.3596   -2.6682    2.2656 H   0  0  0  0  0  0  0  0  0  0  0  0
  1  2  1  0  0  0  0
  1 27  1  0  0  0  0
  1 28  1  0  0  0  0
  1 29  1  0  0  0  0
  2  3  2  0  0  0  0
  2  4  2  0  0  0  0
  2  5  1  0  0  0  0
  5  6  1  0  0  0  0
  6  7  1  0  0  0  0
  6 26  2  0  0  0  0
  7  8  2  0  0  0  0
  7 30  1  0  0  0  0
  8  9  1  0  0  0  0
  8 31  1  0  0  0  0
  9 10  1  0  0  0  0
  9 25  2  0  0  0  0
 10 11  2  0  0  0  0
 10 32  1  0  0  0  0
 11 12  1  0  0  0  0
 12 13  2  0  0  0  0
 12 33  1  0  0  0  0
 13 14  1  0  0  0  0
 13 25  1  0  0  0  0
 14 15  1  0  0  0  0
 14 34  1  0  0  0  0
 15 16  2  0  0  0  0
 15 17  1  0  0  0  0
 17 18  1  0  0  0  0
 17 35  1  0  0  0  0
 17 36  1  0  0  0  0
 18 19  1  0  0  0  0
 18 24  2  0  0  0  0
 19 20  2  0  0  0  0
 19 37  1  0  0  0  0
 20 21  1  0  0  0  0
 20 38  1  0  0  0  0
 21 22  2  0  0  0  0
 21 39  1  0  0  0  0
 22 23  1  0  0  0  0
 22 24  1  0  0  0  0
 24 40  1  0  0  0  0
 25 26  1  0  0  0  0
 26 41  1  0  0  0  0
M  END
$$$$
