
 OpenBabel07202414183D

 38 41  0  0  1  0  0  0  0  0999 V2000
    1.1243    0.0852   -0.0696 Cl  0  0  0  0  0  0  0  0  0  0  0  0
    2.8391    0.0029    0.0304 C   0  0  0  0  0  0  0  0  0  0  0  0
    3.5959    1.1634   -0.1013 C   0  0  0  0  0  0  0  0  0  0  0  0
    4.9864    1.0942   -0.0246 C   0  0  0  0  0  0  0  0  0  0  0  0
    5.6177   -0.1323    0.1887 C   0  0  0  0  0  0  0  0  0  0  0  0
    4.8610   -1.3030    0.3342 C   0  0  0  0  0  0  0  0  0  0  0  0
    3.4618   -1.2263    0.2517 C   0  0  0  0  0  0  0  0  0  0  0  0
    5.5414   -2.6201    0.6468 C   0  0  2  0  0  0  0  0  0  0  0  0
    5.4947   -2.9993    2.1503 C   0  0  0  0  0  0  0  0  0  0  0  0
    5.5169   -4.1768    2.5061 O   0  0  0  0  0  0  0  0  0  0  0  0
    5.5131   -1.9160    3.0057 N   0  0  0  0  0  0  0  0  0  0  0  0
    5.2394   -1.8737    4.3910 C   0  0  0  0  0  0  0  0  0  0  0  0
    4.8482   -2.9793    5.1376 C   0  0  0  0  0  0  0  0  0  0  0  0
    4.3284   -2.8905    6.3862 N   0  0  0  0  0  0  0  0  0  0  0  0
    4.2714   -1.6614    6.9427 C   0  0  0  0  0  0  0  0  0  0  0  0
    4.8033   -0.5103    6.3628 C   0  0  0  0  0  0  0  0  0  0  0  0
    4.8855    0.7116    7.0483 C   0  0  0  0  0  0  0  0  0  0  0  0
    5.4531    1.7987    6.4088 C   0  0  0  0  0  0  0  0  0  0  0  0
    5.9018    1.7601    5.1410 N   0  0  0  0  0  0  0  0  0  0  0  0
    5.7992    0.5741    4.4954 C   0  0  0  0  0  0  0  0  0  0  0  0
    5.2798   -0.6135    5.0450 C   0  0  0  0  0  0  0  0  0  0  0  0
    6.9762   -2.5589    0.1300 C   0  0  0  0  0  0  0  0  0  0  0  0
    7.6616   -1.2923    0.6181 C   0  0  0  0  0  0  0  0  0  0  0  0
    6.9803   -0.0896    0.2542 O   0  0  0  0  0  0  0  0  0  0  0  0
    3.1124    2.1244   -0.2660 H   0  0  0  0  0  0  0  0  0  0  0  0
    5.5800    2.0006   -0.1256 H   0  0  0  0  0  0  0  0  0  0  0  0
    2.8554   -2.1231    0.3650 H   0  0  0  0  0  0  0  0  0  0  0  0
    5.0123   -3.4169    0.1095 H   0  0  0  0  0  0  0  0  0  0  0  0
    5.5355   -1.0124    2.5591 H   0  0  0  0  0  0  0  0  0  0  0  0
    4.9010   -3.9946    4.7579 H   0  0  0  0  0  0  0  0  0  0  0  0
    3.7698   -1.6253    7.9082 H   0  0  0  0  0  0  0  0  0  0  0  0
    4.5583    0.8065    8.0788 H   0  0  0  0  0  0  0  0  0  0  0  0
    5.5912    2.7468    6.9189 H   0  0  0  0  0  0  0  0  0  0  0  0
    6.2096    0.6194    3.4899 H   0  0  0  0  0  0  0  0  0  0  0  0
    6.9539   -2.5415   -0.9688 H   0  0  0  0  0  0  0  0  0  0  0  0
    7.5478   -3.4411    0.4352 H   0  0  0  0  0  0  0  0  0  0  0  0
    8.6653   -1.2340    0.1829 H   0  0  0  0  0  0  0  0  0  0  0  0
    7.7954   -1.2983    1.7052 H   0  0  0  0  0  0  0  0  0  0  0  0
  1  2  1  0  0  0  0
  2  3  1  0  0  0  0
  2  7  2  0  0  0  0
  3  4  2  0  0  0  0
  3 25  1  0  0  0  0
  4  5  1  0  0  0  0
  4 26  1  0  0  0  0
  5  6  2  0  0  0  0
  5 24  1  0  0  0  0
  6  7  1  0  0  0  0
  6  8  1  0  0  0  0
  7 27  1  0  0  0  0
  8  9  1  0  0  0  0
  8 22  1  0  0  0  0
  8 28  1  6  0  0  0
  9 10  2  0  0  0  0
  9 11  1  0  0  0  0
 11 12  1  0  0  0  0
 11 29  1  0  0  0  0
 12 13  1  0  0  0  0
 12 21  2  0  0  0  0
 13 14  2  0  0  0  0
 13 30  1  0  0  0  0
 14 15  1  0  0  0  0
 15 16  2  0  0  0  0
 15 31  1  0  0  0  0
 16 17  1  0  0  0  0
 16 21  1  0  0  0  0
 17 18  2  0  0  0  0
 17 32  1  0  0  0  0
 18 19  1  0  0  0  0
 18 33  1  0  0  0  0
 19 20  2  0  0  0  0
 20 21  1  0  0  0  0
 20 34  1  0  0  0  0
 22 23  1  0  0  0  0
 22 35  1  0  0  0  0
 22 36  1  0  0  0  0
 23 24  1  0  0  0  0
 23 37  1  0  0  0  0
 23 38  1  0  0  0  0
M  END
$$$$
