
 OpenBabel07202414113D

 67 71  0  0  1  0  0  0  0  0999 V2000
    2.2601   -1.5072    6.2836 C   0  0  0  0  0  0  0  0  0  0  0  0
    3.7033   -1.5453    5.8463 C   0  0  0  0  0  0  0  0  0  0  0  0
    4.4950   -2.3055    6.3954 O   0  0  0  0  0  0  0  0  0  0  0  0
    3.9813   -0.6657    4.8121 N   0  0  0  0  0  0  0  0  0  0  0  0
    5.2223   -0.5191    4.1501 C   0  0  0  0  0  0  0  0  0  0  0  0
    6.2800   -1.4135    4.2766 C   0  0  0  0  0  0  0  0  0  0  0  0
    7.5085   -1.1909    3.6212 C   0  0  0  0  0  0  0  0  0  0  0  0
    7.7323   -0.0668    2.8168 C   0  0  0  0  0  0  0  0  0  0  0  0
    9.0192    0.2066    2.1933 N   0  0  0  0  0  0  0  0  0  0  0  0
    9.3346    1.5933    1.8461 C   0  0  0  0  0  0  0  0  0  0  0  0
   10.0073   -0.7940    2.0047 C   0  0  0  0  0  0  0  0  0  0  0  0
    9.8457   -1.9912    2.2668 O   0  0  0  0  0  0  0  0  0  0  0  0
   11.3701   -0.3984    1.3535 C   0  0  0  0  0  0  0  0  0  0  0  0
   12.1194    0.5800    2.1467 N   0  0  0  0  0  0  0  0  0  0  0  0
   12.4676    0.1289    3.4980 C   0  0  0  0  0  0  0  0  0  0  0  0
   12.6661    1.3990    4.2946 C   0  0  0  0  0  0  0  0  0  0  0  0
   12.0108    1.5795    5.5186 C   0  0  0  0  0  0  0  0  0  0  0  0
   11.9614    2.8442    6.1002 C   0  0  0  0  0  0  0  0  0  0  0  0
   12.5659    3.9232    5.4594 C   0  0  0  0  0  0  0  0  0  0  0  0
   12.4150    5.5023    6.1257 Cl  0  0  0  0  0  0  0  0  0  0  0  0
   13.2650    3.7450    4.2636 C   0  0  0  0  0  0  0  0  0  0  0  0
   13.3504    2.4710    3.6810 C   0  0  0  0  0  0  0  0  0  0  0  0
   14.0319    2.2489    2.3244 C   0  0  1  0  0  0  0  0  0  0  0  0
   15.5749    2.0492    2.3832 C   0  0  0  0  0  0  0  0  0  0  0  0
   16.1524    1.3492    1.5538 O   0  0  0  0  0  0  0  0  0  0  0  0
   16.2271    2.8062    3.3461 N   0  0  0  0  0  0  0  0  0  0  0  0
   17.6261    2.9806    3.5532 C   0  0  0  0  0  0  0  0  0  0  0  0
   18.5964    2.4207    2.7211 C   0  0  0  0  0  0  0  0  0  0  0  0
   19.9296    2.6363    2.8398 N   0  0  0  0  0  0  0  0  0  0  0  0
   20.3303    3.4000    3.8745 C   0  0  0  0  0  0  0  0  0  0  0  0
   19.4747    3.9459    4.8288 C   0  0  0  0  0  0  0  0  0  0  0  0
   19.9897    4.6383    5.9420 C   0  0  0  0  0  0  0  0  0  0  0  0
   19.1375    5.1792    6.8999 C   0  0  0  0  0  0  0  0  0  0  0  0
   17.7634    5.0775    6.7277 C   0  0  0  0  0  0  0  0  0  0  0  0
   17.2448    4.3929    5.6248 C   0  0  0  0  0  0  0  0  0  0  0  0
   18.0759    3.7728    4.6592 C   0  0  0  0  0  0  0  0  0  0  0  0
   13.3451    1.0949    1.5009 C   0  0  0  0  0  0  0  0  0  0  0  0
    6.6320    0.7982    2.6612 C   0  0  0  0  0  0  0  0  0  0  0  0
    5.4001    0.5782    3.3103 C   0  0  0  0  0  0  0  0  0  0  0  0
    2.1571   -2.0460    7.2309 H   0  0  0  0  0  0  0  0  0  0  0  0
    1.6371   -1.9973    5.5313 H   0  0  0  0  0  0  0  0  0  0  0  0
    1.9249   -0.4784    6.4384 H   0  0  0  0  0  0  0  0  0  0  0  0
    3.2564   -0.0044    4.5652 H   0  0  0  0  0  0  0  0  0  0  0  0
    6.1904   -2.3138    4.8765 H   0  0  0  0  0  0  0  0  0  0  0  0
    8.2826   -1.9284    3.8072 H   0  0  0  0  0  0  0  0  0  0  0  0
    8.5174    2.2976    1.9903 H   0  0  0  0  0  0  0  0  0  0  0  0
    9.6530    1.6472    0.8021 H   0  0  0  0  0  0  0  0  0  0  0  0
   10.1351    1.9484    2.4983 H   0  0  0  0  0  0  0  0  0  0  0  0
   11.1488   -0.0048    0.3548 H   0  0  0  0  0  0  0  0  0  0  0  0
   11.9616   -1.3119    1.2145 H   0  0  0  0  0  0  0  0  0  0  0  0
   13.3723   -0.4922    3.5196 H   0  0  0  0  0  0  0  0  0  0  0  0
   11.6599   -0.4541    3.9525 H   0  0  0  0  0  0  0  0  0  0  0  0
   11.4716    0.7551    5.9817 H   0  0  0  0  0  0  0  0  0  0  0  0
   11.4041    2.9878    7.0221 H   0  0  0  0  0  0  0  0  0  0  0  0
   13.6983    4.6097    3.7650 H   0  0  0  0  0  0  0  0  0  0  0  0
   13.8842    3.1722    1.7445 H   0  0  0  0  0  0  0  0  0  0  0  0
   15.6383    3.2824    4.0051 H   0  0  0  0  0  0  0  0  0  0  0  0
   18.3493    1.7620    1.8978 H   0  0  0  0  0  0  0  0  0  0  0  0
   21.4047    3.5645    3.9209 H   0  0  0  0  0  0  0  0  0  0  0  0
   21.0643    4.7331    6.0854 H   0  0  0  0  0  0  0  0  0  0  0  0
   19.5437    5.6752    7.7777 H   0  0  0  0  0  0  0  0  0  0  0  0
   17.0913    5.5151    7.4618 H   0  0  0  0  0  0  0  0  0  0  0  0
   16.1611    4.3462    5.5578 H   0  0  0  0  0  0  0  0  0  0  0  0
   14.0353    0.2631    1.3128 H   0  0  0  0  0  0  0  0  0  0  0  0
   13.0849    1.5038    0.5158 H   0  0  0  0  0  0  0  0  0  0  0  0
    6.6715    1.6607    2.0041 H   0  0  0  0  0  0  0  0  0  0  0  0
    4.5972    1.2941    3.1524 H   0  0  0  0  0  0  0  0  0  0  0  0
  1  2  1  0  0  0  0
  1 40  1  0  0  0  0
  1 41  1  0  0  0  0
  1 42  1  0  0  0  0
  2  3  2  0  0  0  0
  2  4  1  0  0  0  0
  4  5  1  0  0  0  0
  4 43  1  0  0  0  0
  5  6  1  0  0  0  0
  5 39  2  0  0  0  0
  6  7  2  0  0  0  0
  6 44  1  0  0  0  0
  7  8  1  0  0  0  0
  7 45  1  0  0  0  0
  8  9  1  0  0  0  0
  8 38  2  0  0  0  0
  9 10  1  0  0  0  0
  9 11  1  0  0  0  0
 10 46  1  0  0  0  0
 10 47  1  0  0  0  0
 10 48  1  0  0  0  0
 11 12  2  0  0  0  0
 11 13  1  0  0  0  0
 13 14  1  0  0  0  0
 13 49  1  0  0  0  0
 13 50  1  0  0  0  0
 14 15  1  0  0  0  0
 14 37  1  0  0  0  0
 15 16  1  0  0  0  0
 15 51  1  0  0  0  0
 15 52  1  0  0  0  0
 16 17  1  0  0  0  0
 16 22  2  0  0  0  0
 17 18  2  0  0  0  0
 17 53  1  0  0  0  0
 18 19  1  0  0  0  0
 18 54  1  0  0  0  0
 19 20  1  0  0  0  0
 19 21  2  0  0  0  0
 21 22  1  0  0  0  0
 21 55  1  0  0  0  0
 22 23  1  0  0  0  0
 23 24  1  0  0  0  0
 23 37  1  0  0  0  0
 23 56  1  6  0  0  0
 24 25  2  0  0  0  0
 24 26  1  0  0  0  0
 26 27  1  0  0  0  0
 26 57  1  0  0  0  0
 27 28  1  0  0  0  0
 27 36  2  0  0  0  0
 28 29  2  0  0  0  0
 28 58  1  0  0  0  0
 29 30  1  0  0  0  0
 30 31  2  0  0  0  0
 30 59  1  0  0  0  0
 31 32  1  0  0  0  0
 31 36  1  0  0  0  0
 32 33  2  0  0  0  0
 32 60  1  0  0  0  0
 33 34  1  0  0  0  0
 33 61  1  0  0  0  0
 34 35  2  0  0  0  0
 34 62  1  0  0  0  0
 35 36  1  0  0  0  0
 35 63  1  0  0  0  0
 37 64  1  0  0  0  0
 37 65  1  0  0  0  0
 38 39  1  0  0  0  0
 38 66  1  0  0  0  0
 39 67  1  0  0  0  0
M  END
$$$$
