
 OpenBabel07202414183D

 39 42  0  0  1  0  0  0  0  0999 V2000
    3.3629    0.8688   -2.0840 F   0  0  0  0  0  0  0  0  0  0  0  0
    3.5556    0.5286   -0.8026 C   0  0  0  0  0  0  0  0  0  0  0  0
    3.4573    1.4991    0.1805 C   0  0  0  0  0  0  0  0  0  0  0  0
    3.6299    1.1318    1.5098 C   0  0  0  0  0  0  0  0  0  0  0  0
    3.9080   -0.2054    1.8524 C   0  0  0  0  0  0  0  0  0  0  0  0
    4.0551   -0.5722    3.1872 C   0  0  0  0  0  0  0  0  0  0  0  0
    4.2982   -1.8261    3.6069 N   0  0  0  0  0  0  0  0  0  0  0  0
    4.4731   -2.7631    2.6452 C   0  0  0  0  0  0  0  0  0  0  0  0
    4.4111   -2.5226    1.2678 C   0  0  0  0  0  0  0  0  0  0  0  0
    4.7262   -3.5345    0.3078 N   0  0  0  0  0  0  0  0  0  0  0  0
    5.5136   -4.6465    0.5686 C   0  0  0  0  0  0  0  0  0  0  0  0
    5.9660   -4.9397    1.6755 O   0  0  0  0  0  0  0  0  0  0  0  0
    5.7793   -5.5917   -0.6112 C   0  0  3  0  0  0  0  0  0  0  0  0
    4.6356   -6.6054   -0.7070 C   0  0  0  0  0  0  0  0  0  0  0  0
    3.8207   -6.5208   -1.9872 C   0  0  0  0  0  0  0  0  0  0  0  0
    4.5727   -6.3046   -3.1687 O   0  0  0  0  0  0  0  0  0  0  0  0
    5.4579   -5.2724   -3.0973 C   0  0  0  0  0  0  0  0  0  0  0  0
    5.7576   -4.6416   -4.3051 C   0  0  0  0  0  0  0  0  0  0  0  0
    6.7779   -3.6892   -4.3676 C   0  0  0  0  0  0  0  0  0  0  0  0
    7.5101   -3.4063   -3.2222 C   0  0  0  0  0  0  0  0  0  0  0  0
    8.8626   -2.3470   -3.3284 Cl  0  0  0  0  0  0  0  0  0  0  0  0
    7.1862   -4.0030   -2.0047 C   0  0  0  0  0  0  0  0  0  0  0  0
    6.1220   -4.9225   -1.9197 C   0  0  0  0  0  0  0  0  0  0  0  0
    4.0523   -1.2070    0.8534 C   0  0  0  0  0  0  0  0  0  0  0  0
    3.8511   -0.7971   -0.4864 C   0  0  0  0  0  0  0  0  0  0  0  0
    3.2404    2.5281   -0.0923 H   0  0  0  0  0  0  0  0  0  0  0  0
    3.5525    1.8964    2.2821 H   0  0  0  0  0  0  0  0  0  0  0  0
    3.9736    0.1569    3.9897 H   0  0  0  0  0  0  0  0  0  0  0  0
    4.6482   -3.7540    3.0530 H   0  0  0  0  0  0  0  0  0  0  0  0
    4.5788   -3.3067   -0.6653 H   0  0  0  0  0  0  0  0  0  0  0  0
    6.6833   -6.1532   -0.3260 H   0  0  0  0  0  0  0  0  0  0  0  0
    3.9520   -6.5316    0.1480 H   0  0  0  0  0  0  0  0  0  0  0  0
    5.0763   -7.6084   -0.6435 H   0  0  0  0  0  0  0  0  0  0  0  0
    3.0489   -5.7467   -1.9188 H   0  0  0  0  0  0  0  0  0  0  0  0
    3.2981   -7.4773   -2.1218 H   0  0  0  0  0  0  0  0  0  0  0  0
    5.2050   -4.9052   -5.2028 H   0  0  0  0  0  0  0  0  0  0  0  0
    7.0074   -3.2111   -5.3157 H   0  0  0  0  0  0  0  0  0  0  0  0
    7.7817   -3.7706   -1.1216 H   0  0  0  0  0  0  0  0  0  0  0  0
    3.9085   -1.4942   -1.3160 H   0  0  0  0  0  0  0  0  0  0  0  0
  1  2  1  0  0  0  0
  2  3  1  0  0  0  0
  2 25  2  0  0  0  0
  3  4  2  0  0  0  0
  3 26  1  0  0  0  0
  4  5  1  0  0  0  0
  4 27  1  0  0  0  0
  5  6  1  0  0  0  0
  5 24  2  0  0  0  0
  6  7  2  0  0  0  0
  6 28  1  0  0  0  0
  7  8  1  0  0  0  0
  8  9  2  0  0  0  0
  8 29  1  0  0  0  0
  9 10  1  0  0  0  0
  9 24  1  0  0  0  0
 10 11  1  0  0  0  0
 10 30  1  0  0  0  0
 11 12  2  0  0  0  0
 11 13  1  0  0  0  0
 13 14  1  0  0  0  0
 13 23  1  0  0  0  0
 13 31  1  0  0  0  0
 14 15  1  0  0  0  0
 14 32  1  0  0  0  0
 14 33  1  0  0  0  0
 15 16  1  0  0  0  0
 15 34  1  0  0  0  0
 15 35  1  0  0  0  0
 16 17  1  0  0  0  0
 17 18  1  0  0  0  0
 17 23  2  0  0  0  0
 18 19  2  0  0  0  0
 18 36  1  0  0  0  0
 19 20  1  0  0  0  0
 19 37  1  0  0  0  0
 20 21  1  0  0  0  0
 20 22  2  0  0  0  0
 22 23  1  0  0  0  0
 22 38  1  0  0  0  0
 24 25  1  0  0  0  0
 25 39  1  0  0  0  0
M  END
$$$$
