
 OpenBabel07202414153D

 62 66  0  0  1  0  0  0  0  0999 V2000
    3.2401    0.9180    0.6747 C   0  0  0  0  0  0  0  0  0  0  0  0
    2.1284   -0.3302    0.0681 S   0  0  0  0  0  0  0  0  0  0  0  0
    0.9101   -0.2623    0.8553 O   0  0  0  0  0  0  0  0  0  0  0  0
    2.0910   -0.2351   -1.3795 O   0  0  0  0  0  0  0  0  0  0  0  0
    2.9354   -1.8599    0.4497 C   0  0  0  0  0  0  0  0  0  0  0  0
    4.1551   -2.1104   -0.1552 C   0  0  0  0  0  0  0  0  0  0  0  0
    4.8041   -3.3159    0.0867 C   0  0  0  0  0  0  0  0  0  0  0  0
    4.3393   -4.2609    1.0230 C   0  0  0  0  0  0  0  0  0  0  0  0
    5.0524   -5.4234    1.4236 C   0  0  0  0  0  0  0  0  0  0  0  0
    6.4275   -5.7318    1.1476 N   0  0  0  0  0  0  0  0  0  0  0  0
    7.4604   -4.8378    0.8984 C   0  0  0  0  0  0  0  0  0  0  0  0
    7.3626   -3.6123    0.8369 O   0  0  0  0  0  0  0  0  0  0  0  0
    8.8820   -5.4113    0.9066 C   0  0  3  0  0  0  0  0  0  0  0  0
    9.1762   -6.5725   -0.0300 C   0  0  0  0  0  0  0  0  0  0  0  0
    8.7324   -7.8537    0.5051 N   0  0  0  0  0  0  0  0  0  0  0  0
    7.8065   -8.6701   -0.2840 C   0  0  0  0  0  0  0  0  0  0  0  0
    8.2369   -9.2025   -1.6553 C   0  0  0  0  0  0  0  0  0  0  0  0
    7.4010   -9.3864   -2.5396 O   0  0  0  0  0  0  0  0  0  0  0  0
    9.5546   -9.5604   -1.7925 N   0  0  0  0  0  0  0  0  0  0  0  0
   10.0690  -10.0917   -3.0378 C   0  0  0  0  0  0  0  0  0  0  0  0
   10.6178  -11.4693   -2.8444 C   0  0  0  0  0  0  0  0  0  0  0  0
   11.8319  -11.7426   -1.9935 C   0  0  0  0  0  0  0  0  0  0  0  0
   11.9327  -11.8386   -3.4894 C   0  0  0  0  0  0  0  0  0  0  0  0
    9.0480   -8.1982    1.8181 C   0  0  0  0  0  0  0  0  0  0  0  0
    8.9159   -9.3385    2.2588 O   0  0  0  0  0  0  0  0  0  0  0  0
    9.4051   -7.0717    2.7475 C   0  0  0  0  0  0  0  0  0  0  0  0
    9.6856   -7.3354    4.0932 C   0  0  0  0  0  0  0  0  0  0  0  0
    9.7908   -6.2838    5.0149 C   0  0  0  0  0  0  0  0  0  0  0  0
    9.6223   -4.9665    4.5970 C   0  0  0  0  0  0  0  0  0  0  0  0
    9.6453   -3.6817    5.7388 Cl  0  0  0  0  0  0  0  0  0  0  0  0
    9.3828   -4.6882    3.2577 C   0  0  0  0  0  0  0  0  0  0  0  0
    9.2749   -5.7378    2.3261 C   0  0  0  0  0  0  0  0  0  0  0  0
    4.3500   -6.3481    2.2086 C   0  0  0  0  0  0  0  0  0  0  0  0
    3.0829   -6.1932    2.6568 N   0  0  0  0  0  0  0  0  0  0  0  0
    2.4688   -5.0334    2.3296 C   0  0  0  0  0  0  0  0  0  0  0  0
    3.0358   -4.0321    1.5446 C   0  0  0  0  0  0  0  0  0  0  0  0
    2.3427   -2.8299    1.2597 C   0  0  0  0  0  0  0  0  0  0  0  0
    2.8317    1.8940    0.4007 H   0  0  0  0  0  0  0  0  0  0  0  0
    4.2199    0.7977    0.2086 H   0  0  0  0  0  0  0  0  0  0  0  0
    3.3147    0.8362    1.7606 H   0  0  0  0  0  0  0  0  0  0  0  0
    4.6111   -1.3977   -0.8378 H   0  0  0  0  0  0  0  0  0  0  0  0
    5.6955   -3.5057   -0.4971 H   0  0  0  0  0  0  0  0  0  0  0  0
    6.7212   -6.6527    1.4584 H   0  0  0  0  0  0  0  0  0  0  0  0
    9.5300   -4.5917    0.5595 H   0  0  0  0  0  0  0  0  0  0  0  0
   10.2688   -6.6680   -0.1296 H   0  0  0  0  0  0  0  0  0  0  0  0
    8.7739   -6.4144   -1.0354 H   0  0  0  0  0  0  0  0  0  0  0  0
    6.9347   -8.0292   -0.4658 H   0  0  0  0  0  0  0  0  0  0  0  0
    7.4620   -9.5245    0.3084 H   0  0  0  0  0  0  0  0  0  0  0  0
   10.1777   -9.4611   -1.0014 H   0  0  0  0  0  0  0  0  0  0  0  0
   10.8389   -9.3964   -3.3872 H   0  0  0  0  0  0  0  0  0  0  0  0
    9.2854  -10.1251   -3.8027 H   0  0  0  0  0  0  0  0  0  0  0  0
    9.8309  -12.2175   -2.8504 H   0  0  0  0  0  0  0  0  0  0  0  0
   11.8538  -12.6693   -1.4293 H   0  0  0  0  0  0  0  0  0  0  0  0
   12.3230  -10.9121   -1.5014 H   0  0  0  0  0  0  0  0  0  0  0  0
   12.0246  -12.8232   -3.9348 H   0  0  0  0  0  0  0  0  0  0  0  0
   12.5001  -11.0716   -4.0060 H   0  0  0  0  0  0  0  0  0  0  0  0
    9.7702   -8.3622    4.4455 H   0  0  0  0  0  0  0  0  0  0  0  0
    9.9685   -6.5021    6.0652 H   0  0  0  0  0  0  0  0  0  0  0  0
    9.2204   -3.6577    2.9417 H   0  0  0  0  0  0  0  0  0  0  0  0
    4.8124   -7.2727    2.5475 H   0  0  0  0  0  0  0  0  0  0  0  0
    1.4562   -4.9406    2.7263 H   0  0  0  0  0  0  0  0  0  0  0  0
    1.3451   -2.6623    1.6654 H   0  0  0  0  0  0  0  0  0  0  0  0
  1  2  1  0  0  0  0
  1 38  1  0  0  0  0
  1 39  1  0  0  0  0
  1 40  1  0  0  0  0
  2  3  2  0  0  0  0
  2  4  2  0  0  0  0
  2  5  1  0  0  0  0
  5  6  1  0  0  0  0
  5 37  2  0  0  0  0
  6  7  2  0  0  0  0
  6 41  1  0  0  0  0
  7  8  1  0  0  0  0
  7 42  1  0  0  0  0
  8  9  1  0  0  0  0
  8 36  2  0  0  0  0
  9 10  1  0  0  0  0
  9 33  2  0  0  0  0
 10 11  1  0  0  0  0
 10 43  1  0  0  0  0
 11 12  2  0  0  0  0
 11 13  1  0  0  0  0
 13 14  1  0  0  0  0
 13 32  1  0  0  0  0
 13 44  1  0  0  0  0
 14 15  1  0  0  0  0
 14 45  1  0  0  0  0
 14 46  1  0  0  0  0
 15 16  1  0  0  0  0
 15 24  1  0  0  0  0
 16 17  1  0  0  0  0
 16 47  1  0  0  0  0
 16 48  1  0  0  0  0
 17 18  2  0  0  0  0
 17 19  1  0  0  0  0
 19 20  1  0  0  0  0
 19 49  1  0  0  0  0
 20 21  1  0  0  0  0
 20 50  1  0  0  0  0
 20 51  1  0  0  0  0
 21 22  1  0  0  0  0
 21 23  1  0  0  0  0
 21 52  1  0  0  0  0
 22 23  1  0  0  0  0
 22 53  1  0  0  0  0
 22 54  1  0  0  0  0
 23 55  1  0  0  0  0
 23 56  1  0  0  0  0
 24 25  2  0  0  0  0
 24 26  1  0  0  0  0
 26 27  1  0  0  0  0
 26 32  2  0  0  0  0
 27 28  2  0  0  0  0
 27 57  1  0  0  0  0
 28 29  1  0  0  0  0
 28 58  1  0  0  0  0
 29 30  1  0  0  0  0
 29 31  2  0  0  0  0
 31 32  1  0  0  0  0
 31 59  1  0  0  0  0
 33 34  1  0  0  0  0
 33 60  1  0  0  0  0
 34 35  2  0  0  0  0
 35 36  1  0  0  0  0
 35 61  1  0  0  0  0
 36 37  1  0  0  0  0
 37 62  1  0  0  0  0
M  END
$$$$
