
 OpenBabel07202414173D

 57 62  0  0  1  0  0  0  0  0999 V2000
    9.0531   -0.4992   -0.3551 Cl  0  0  0  0  0  0  0  0  0  0  0  0
    7.8906   -1.7405   -0.6104 C   0  0  0  0  0  0  0  0  0  0  0  0
    8.1382   -2.7345   -1.5561 C   0  0  0  0  0  0  0  0  0  0  0  0
    7.1885   -3.7381   -1.7668 C   0  0  0  0  0  0  0  0  0  0  0  0
    5.9981   -3.7510   -1.0419 C   0  0  0  0  0  0  0  0  0  0  0  0
    5.7511   -2.7611   -0.0921 C   0  0  0  0  0  0  0  0  0  0  0  0
    6.7094   -1.7543    0.1271 C   0  0  0  0  0  0  0  0  0  0  0  0
    4.4785   -2.7877    0.7083 C   0  0  3  0  0  0  0  0  0  0  0  0
    4.6930   -3.2566    2.1448 C   0  0  0  0  0  0  0  0  0  0  0  0
    4.1909   -2.5993    3.0541 O   0  0  0  0  0  0  0  0  0  0  0  0
    5.4325   -4.4244    2.3037 N   0  0  0  0  0  0  0  0  0  0  0  0
    5.9749   -4.8693    3.5401 C   0  0  0  0  0  0  0  0  0  0  0  0
    5.6179   -4.2716    4.7501 C   0  0  0  0  0  0  0  0  0  0  0  0
    6.3363   -4.3614    5.8863 N   0  0  0  0  0  0  0  0  0  0  0  0
    7.4051   -5.1720    5.8437 C   0  0  0  0  0  0  0  0  0  0  0  0
    7.6923   -6.0273    4.7870 C   0  0  0  0  0  0  0  0  0  0  0  0
    8.6123   -7.0645    4.9764 C   0  0  0  0  0  0  0  0  0  0  0  0
    8.7196   -8.1015    4.0450 C   0  0  0  0  0  0  0  0  0  0  0  0
    9.1965   -9.4540    4.5466 C   0  0  0  0  0  0  0  0  0  0  0  0
   10.2605  -10.1227    3.7830 N   0  0  0  0  0  0  0  0  0  0  0  0
   10.5403  -11.4638    4.4189 C   0  0  0  0  0  0  0  0  0  0  0  0
   11.6507  -10.8182    5.1975 C   0  0  0  0  0  0  0  0  0  0  0  0
   11.4735  -10.6452    6.6824 C   0  0  0  0  0  0  0  0  0  0  0  0
   12.4581  -11.7485    6.8702 N   0  0  0  0  0  0  0  0  0  0  0  0
   12.9395  -11.5243    5.4778 C   0  0  0  0  0  0  0  0  0  0  0  0
   11.6089   -9.6617    4.2441 C   0  0  0  0  0  0  0  0  0  0  0  0
    8.1043   -7.9394    2.7997 C   0  0  0  0  0  0  0  0  0  0  0  0
    7.2716   -6.8283    2.5542 C   0  0  0  0  0  0  0  0  0  0  0  0
    6.9684   -5.8893    3.5763 C   0  0  0  0  0  0  0  0  0  0  0  0
    3.4116   -3.6103    0.0074 C   0  0  0  0  0  0  0  0  0  0  0  0
    3.9835   -4.9216   -0.5032 C   0  0  0  0  0  0  0  0  0  0  0  0
    5.1334   -4.7678   -1.3336 O   0  0  0  0  0  0  0  0  0  0  0  0
    9.0601   -2.7358   -2.1319 H   0  0  0  0  0  0  0  0  0  0  0  0
    7.3796   -4.5075   -2.5078 H   0  0  0  0  0  0  0  0  0  0  0  0
    6.5279   -0.9755    0.8678 H   0  0  0  0  0  0  0  0  0  0  0  0
    4.1102   -1.7512    0.7684 H   0  0  0  0  0  0  0  0  0  0  0  0
    5.8766   -4.8091    1.4791 H   0  0  0  0  0  0  0  0  0  0  0  0
    4.7179   -3.6771    4.8630 H   0  0  0  0  0  0  0  0  0  0  0  0
    8.0067   -5.1567    6.7473 H   0  0  0  0  0  0  0  0  0  0  0  0
    9.1221   -7.1494    5.9348 H   0  0  0  0  0  0  0  0  0  0  0  0
    8.3036  -10.0947    4.5418 H   0  0  0  0  0  0  0  0  0  0  0  0
    9.4611   -9.3504    5.6062 H   0  0  0  0  0  0  0  0  0  0  0  0
   10.8723  -12.2175    3.6937 H   0  0  0  0  0  0  0  0  0  0  0  0
    9.7215  -11.9054    5.0000 H   0  0  0  0  0  0  0  0  0  0  0  0
   10.4855  -10.8615    7.1031 H   0  0  0  0  0  0  0  0  0  0  0  0
   11.8202   -9.6874    7.0841 H   0  0  0  0  0  0  0  0  0  0  0  0
   12.0259  -12.6572    7.0058 H   0  0  0  0  0  0  0  0  0  0  0  0
   13.1520  -12.4360    4.9149 H   0  0  0  0  0  0  0  0  0  0  0  0
   13.8264  -10.8785    5.4483 H   0  0  0  0  0  0  0  0  0  0  0  0
   12.3542   -9.7371    3.4419 H   0  0  0  0  0  0  0  0  0  0  0  0
   11.6695   -8.6570    4.6675 H   0  0  0  0  0  0  0  0  0  0  0  0
    8.1899   -8.7250    2.0499 H   0  0  0  0  0  0  0  0  0  0  0  0
    6.7556   -6.7922    1.5968 H   0  0  0  0  0  0  0  0  0  0  0  0
    3.0388   -3.0376   -0.8539 H   0  0  0  0  0  0  0  0  0  0  0  0
    2.5583   -3.7996    0.6666 H   0  0  0  0  0  0  0  0  0  0  0  0
    3.2238   -5.4336   -1.1030 H   0  0  0  0  0  0  0  0  0  0  0  0
    4.2313   -5.6044    0.3156 H   0  0  0  0  0  0  0  0  0  0  0  0
  1  2  1  0  0  0  0
  2  3  1  0  0  0  0
  2  7  2  0  0  0  0
  3  4  2  0  0  0  0
  3 33  1  0  0  0  0
  4  5  1  0  0  0  0
  4 34  1  0  0  0  0
  5  6  2  0  0  0  0
  5 32  1  0  0  0  0
  6  7  1  0  0  0  0
  6  8  1  0  0  0  0
  7 35  1  0  0  0  0
  8  9  1  0  0  0  0
  8 30  1  0  0  0  0
  8 36  1  0  0  0  0
  9 10  2  0  0  0  0
  9 11  1  0  0  0  0
 11 12  1  0  0  0  0
 11 37  1  0  0  0  0
 12 13  1  0  0  0  0
 12 29  2  0  0  0  0
 13 14  2  0  0  0  0
 13 38  1  0  0  0  0
 14 15  1  0  0  0  0
 15 16  2  0  0  0  0
 15 39  1  0  0  0  0
 16 17  1  0  0  0  0
 16 29  1  0  0  0  0
 17 18  2  0  0  0  0
 17 40  1  0  0  0  0
 18 19  1  0  0  0  0
 18 27  1  0  0  0  0
 19 20  1  0  0  0  0
 19 41  1  0  0  0  0
 19 42  1  0  0  0  0
 20 21  1  0  0  0  0
 20 26  1  0  0  0  0
 21 22  1  0  0  0  0
 21 43  1  0  0  0  0
 21 44  1  0  0  0  0
 22 23  1  0  0  0  0
 22 25  1  0  0  0  0
 22 26  1  0  0  0  0
 23 24  1  0  0  0  0
 23 45  1  0  0  0  0
 23 46  1  0  0  0  0
 24 25  1  0  0  0  0
 24 47  1  0  0  0  0
 25 48  1  0  0  0  0
 25 49  1  0  0  0  0
 26 50  1  0  0  0  0
 26 51  1  0  0  0  0
 27 28  2  0  0  0  0
 27 52  1  0  0  0  0
 28 29  1  0  0  0  0
 28 53  1  0  0  0  0
 30 31  1  0  0  0  0
 30 54  1  0  0  0  0
 30 55  1  0  0  0  0
 31 32  1  0  0  0  0
 31 56  1  0  0  0  0
 31 57  1  0  0  0  0
M  END
$$$$
