
 OpenBabel07202414133D

 69 74  0  0  1  0  0  0  0  0999 V2000
    2.0569    1.2494   -6.8408 C   0  0  0  0  0  0  0  0  0  0  0  0
    1.5404    0.6622   -5.5966 N   0  0  0  0  0  0  0  0  0  0  0  0
    0.1818    1.1714   -5.3723 C   0  0  0  0  0  0  0  0  0  0  0  0
    1.7056   -0.8441   -5.5633 C   0  0  0  0  0  0  0  0  0  0  0  0
    3.1246   -1.3786   -5.7726 C   0  0  0  0  0  0  0  0  0  0  0  0
    4.0571   -0.9591   -4.7567 N   0  0  0  0  0  0  0  0  0  0  0  0
    5.3410   -1.4772   -4.8454 C   0  0  0  0  0  0  0  0  0  0  0  0
    5.6318   -2.3477   -5.6686 O   0  0  0  0  0  0  0  0  0  0  0  0
    6.3377   -0.9062   -3.8220 C   0  0  0  0  0  0  0  0  0  0  0  0
    7.7489   -1.1145   -4.2167 N   0  0  0  0  0  0  0  0  0  0  0  0
    8.6681   -0.5530   -3.2230 C   0  0  0  0  0  0  0  0  0  0  0  0
    8.8408    0.9457   -3.3161 C   0  0  0  0  0  0  0  0  0  0  0  0
    9.2821    1.6386   -2.1800 C   0  0  0  0  0  0  0  0  0  0  0  0
    9.4780    3.0219   -2.2197 C   0  0  0  0  0  0  0  0  0  0  0  0
    9.2557    3.7168   -3.4014 C   0  0  0  0  0  0  0  0  0  0  0  0
    9.4996    5.4183   -3.4583 Cl  0  0  0  0  0  0  0  0  0  0  0  0
    8.8288    3.0416   -4.5439 C   0  0  0  0  0  0  0  0  0  0  0  0
    8.6250    1.6495   -4.5263 C   0  0  0  0  0  0  0  0  0  0  0  0
    8.1078    0.9167   -5.7709 C   0  0  3  0  0  0  0  0  0  0  0  0
    8.9676    1.2045   -7.0200 C   0  0  0  0  0  0  0  0  0  0  0  0
    8.1275    2.0418   -7.9603 C   0  0  0  0  0  0  0  0  0  0  0  0
    6.8338    2.2141   -7.3530 N   0  0  0  0  0  0  0  0  0  0  0  0
    6.0470    3.3883   -7.6436 C   0  0  0  0  0  0  0  0  0  0  0  0
    5.3689    4.0555   -6.6142 C   0  0  0  0  0  0  0  0  0  0  0  0
    4.9133    5.3293   -6.6850 N   0  0  0  0  0  0  0  0  0  0  0  0
    5.0915    5.9680   -7.8563 C   0  0  0  0  0  0  0  0  0  0  0  0
    5.5974    5.3687   -9.0057 C   0  0  0  0  0  0  0  0  0  0  0  0
    5.6276    6.0682  -10.2265 C   0  0  0  0  0  0  0  0  0  0  0  0
    6.0642    5.4457  -11.3920 C   0  0  0  0  0  0  0  0  0  0  0  0
    6.4708    4.1210  -11.3476 C   0  0  0  0  0  0  0  0  0  0  0  0
    6.4552    3.4252  -10.1345 C   0  0  0  0  0  0  0  0  0  0  0  0
    6.0576    4.0322   -8.9173 C   0  0  0  0  0  0  0  0  0  0  0  0
    6.7244    1.4803   -6.1649 C   0  0  0  0  0  0  0  0  0  0  0  0
    5.7048    1.3973   -5.4858 O   0  0  0  0  0  0  0  0  0  0  0  0
    8.1102   -0.6159   -5.5515 C   0  0  0  0  0  0  0  0  0  0  0  0
    0.6319   -1.7358   -6.1575 C   0  0  0  0  0  0  0  0  0  0  0  0
    0.8048   -1.6780   -4.6680 C   0  0  0  0  0  0  0  0  0  0  0  0
    1.9009    2.3343   -6.8637 H   0  0  0  0  0  0  0  0  0  0  0  0
    1.5733    0.8137   -7.7222 H   0  0  0  0  0  0  0  0  0  0  0  0
    3.1378    1.1054   -6.9256 H   0  0  0  0  0  0  0  0  0  0  0  0
    0.1696    2.2679   -5.3875 H   0  0  0  0  0  0  0  0  0  0  0  0
   -0.1964    0.8896   -4.3857 H   0  0  0  0  0  0  0  0  0  0  0  0
   -0.5262    0.8292   -6.1350 H   0  0  0  0  0  0  0  0  0  0  0  0
    3.5124   -1.0649   -6.7479 H   0  0  0  0  0  0  0  0  0  0  0  0
    3.1231   -2.4759   -5.7780 H   0  0  0  0  0  0  0  0  0  0  0  0
    3.9679   -0.0004   -4.4314 H   0  0  0  0  0  0  0  0  0  0  0  0
    6.1490   -1.4568   -2.8925 H   0  0  0  0  0  0  0  0  0  0  0  0
    6.1235    0.1440   -3.6100 H   0  0  0  0  0  0  0  0  0  0  0  0
    9.6565   -1.0138   -3.3550 H   0  0  0  0  0  0  0  0  0  0  0  0
    8.3389   -0.8366   -2.2139 H   0  0  0  0  0  0  0  0  0  0  0  0
    9.4628    1.1167   -1.2440 H   0  0  0  0  0  0  0  0  0  0  0  0
    9.8095    3.5503   -1.3306 H   0  0  0  0  0  0  0  0  0  0  0  0
    8.6510    3.6159   -5.4501 H   0  0  0  0  0  0  0  0  0  0  0  0
    9.2472    0.2830   -7.5478 H   0  0  0  0  0  0  0  0  0  0  0  0
    9.9143    1.7059   -6.7893 H   0  0  0  0  0  0  0  0  0  0  0  0
    8.0138    1.4955   -8.8995 H   0  0  0  0  0  0  0  0  0  0  0  0
    8.6041    3.0099   -8.1450 H   0  0  0  0  0  0  0  0  0  0  0  0
    5.2148    3.6181   -5.6328 H   0  0  0  0  0  0  0  0  0  0  0  0
    4.7824    7.0107   -7.8497 H   0  0  0  0  0  0  0  0  0  0  0  0
    5.2792    7.0979  -10.2823 H   0  0  0  0  0  0  0  0  0  0  0  0
    6.0552    5.9827  -12.3368 H   0  0  0  0  0  0  0  0  0  0  0  0
    6.7816    3.6136  -12.2574 H   0  0  0  0  0  0  0  0  0  0  0  0
    6.7047    2.3717  -10.1718 H   0  0  0  0  0  0  0  0  0  0  0  0
    9.1381   -0.9795   -5.7181 H   0  0  0  0  0  0  0  0  0  0  0  0
    7.5375   -1.1126   -6.3413 H   0  0  0  0  0  0  0  0  0  0  0  0
    0.9405   -2.6465   -6.6621 H   0  0  0  0  0  0  0  0  0  0  0  0
   -0.2489   -1.2939   -6.6013 H   0  0  0  0  0  0  0  0  0  0  0  0
    1.2381   -2.5369   -4.1651 H   0  0  0  0  0  0  0  0  0  0  0  0
    0.0133   -1.2204   -4.0904 H   0  0  0  0  0  0  0  0  0  0  0  0
  1  2  1  0  0  0  0
  1 38  1  0  0  0  0
  1 39  1  0  0  0  0
  1 40  1  0  0  0  0
  2  3  1  0  0  0  0
  2  4  1  0  0  0  0
  3 41  1  0  0  0  0
  3 42  1  0  0  0  0
  3 43  1  0  0  0  0
  4  5  1  0  0  0  0
  4 36  1  0  0  0  0
  4 37  1  0  0  0  0
  5  6  1  0  0  0  0
  5 44  1  0  0  0  0
  5 45  1  0  0  0  0
  6  7  1  0  0  0  0
  6 46  1  0  0  0  0
  7  8  2  0  0  0  0
  7  9  1  0  0  0  0
  9 10  1  0  0  0  0
  9 47  1  0  0  0  0
  9 48  1  0  0  0  0
 10 11  1  0  0  0  0
 10 35  1  0  0  0  0
 11 12  1  0  0  0  0
 11 49  1  0  0  0  0
 11 50  1  0  0  0  0
 12 13  1  0  0  0  0
 12 18  2  0  0  0  0
 13 14  2  0  0  0  0
 13 51  1  0  0  0  0
 14 15  1  0  0  0  0
 14 52  1  0  0  0  0
 15 16  1  0  0  0  0
 15 17  2  0  0  0  0
 17 18  1  0  0  0  0
 17 53  1  0  0  0  0
 18 19  1  0  0  0  0
 19 20  1  0  0  0  0
 19 33  1  0  0  0  0
 19 35  1  0  0  0  0
 20 21  1  0  0  0  0
 20 54  1  0  0  0  0
 20 55  1  0  0  0  0
 21 22  1  0  0  0  0
 21 56  1  0  0  0  0
 21 57  1  0  0  0  0
 22 23  1  0  0  0  0
 22 33  1  0  0  0  0
 23 24  1  0  0  0  0
 23 32  2  0  0  0  0
 24 25  2  0  0  0  0
 24 58  1  0  0  0  0
 25 26  1  0  0  0  0
 26 27  2  0  0  0  0
 26 59  1  0  0  0  0
 27 28  1  0  0  0  0
 27 32  1  0  0  0  0
 28 29  2  0  0  0  0
 28 60  1  0  0  0  0
 29 30  1  0  0  0  0
 29 61  1  0  0  0  0
 30 31  2  0  0  0  0
 30 62  1  0  0  0  0
 31 32  1  0  0  0  0
 31 63  1  0  0  0  0
 33 34  2  0  0  0  0
 35 64  1  0  0  0  0
 35 65  1  0  0  0  0
 36 37  1  0  0  0  0
 36 66  1  0  0  0  0
 36 67  1  0  0  0  0
 37 68  1  0  0  0  0
 37 69  1  0  0  0  0
M  END
$$$$
