
 OpenBabel07202414163D

 31 32  0  0  0  0  0  0  0  0999 V2000
    1.4252   -0.2685    0.1979 C   0  0  0  0  0  0  0  0  0  0  0  0
    2.8399   -0.0439   -0.1698 C   0  0  0  0  0  0  0  0  0  0  0  0
    3.2908   -0.3617   -1.4211 N   0  0  0  0  0  0  0  0  0  0  0  0
    4.5707   -0.0263   -1.4922 N   0  0  0  0  0  0  0  0  0  0  0  0
    4.9589    0.3739   -0.2712 N   0  0  0  0  0  0  0  0  0  0  0  0
    6.2043    0.7949    0.0521 N   0  0  0  0  0  0  0  0  0  0  0  0
    7.2676   -0.0269   -0.2659 C   0  0  0  0  0  0  0  0  0  0  0  0
    7.1669   -1.1888   -0.6521 O   0  0  0  0  0  0  0  0  0  0  0  0
    8.6342    0.5932   -0.0217 C   0  0  0  0  0  0  0  0  0  0  0  0
    9.2528    1.3890   -1.1508 C   0  0  0  0  0  0  0  0  0  0  0  0
    8.9471    1.1782   -2.5007 C   0  0  0  0  0  0  0  0  0  0  0  0
    9.6075    1.8993   -3.5054 C   0  0  0  0  0  0  0  0  0  0  0  0
   10.5928    2.8286   -3.1771 C   0  0  0  0  0  0  0  0  0  0  0  0
   10.9261    3.0267   -1.8409 C   0  0  0  0  0  0  0  0  0  0  0  0
   12.1649    4.1461   -1.4205 Cl  0  0  0  0  0  0  0  0  0  0  0  0
   10.2697    2.3118   -0.8359 C   0  0  0  0  0  0  0  0  0  0  0  0
    3.8740    0.5116    0.5633 C   0  0  0  0  0  0  0  0  0  0  0  0
    3.8698    1.1164    1.9161 C   0  0  0  0  0  0  0  0  0  0  0  0
    0.8879   -0.7839   -0.6040 H   0  0  0  0  0  0  0  0  0  0  0  0
    0.9210    0.6848    0.3850 H   0  0  0  0  0  0  0  0  0  0  0  0
    1.3518   -0.8822    1.0999 H   0  0  0  0  0  0  0  0  0  0  0  0
    6.3143    1.7955    0.0030 H   0  0  0  0  0  0  0  0  0  0  0  0
    9.3201   -0.2256    0.2311 H   0  0  0  0  0  0  0  0  0  0  0  0
    8.5593    1.2256    0.8720 H   0  0  0  0  0  0  0  0  0  0  0  0
    8.2056    0.4353   -2.7987 H   0  0  0  0  0  0  0  0  0  0  0  0
    9.3613    1.7249   -4.5502 H   0  0  0  0  0  0  0  0  0  0  0  0
   11.1063    3.3814   -3.9608 H   0  0  0  0  0  0  0  0  0  0  0  0
   10.5682    2.4608    0.1993 H   0  0  0  0  0  0  0  0  0  0  0  0
    4.8348    1.5382    2.1997 H   0  0  0  0  0  0  0  0  0  0  0  0
    3.5788    0.3769    2.6695 H   0  0  0  0  0  0  0  0  0  0  0  0
    3.1325    1.9276    1.9471 H   0  0  0  0  0  0  0  0  0  0  0  0
  1  2  1  0  0  0  0
  1 19  1  0  0  0  0
  1 20  1  0  0  0  0
  1 21  1  0  0  0  0
  2  3  1  0  0  0  0
  2 17  2  0  0  0  0
  3  4  2  0  0  0  0
  4  5  1  0  0  0  0
  5  6  1  0  0  0  0
  5 17  1  0  0  0  0
  6  7  1  0  0  0  0
  6 22  1  0  0  0  0
  7  8  2  0  0  0  0
  7  9  1  0  0  0  0
  9 10  1  0  0  0  0
  9 23  1  0  0  0  0
  9 24  1  0  0  0  0
 10 11  1  0  0  0  0
 10 16  2  0  0  0  0
 11 12  2  0  0  0  0
 11 25  1  0  0  0  0
 12 13  1  0  0  0  0
 12 26  1  0  0  0  0
 13 14  2  0  0  0  0
 13 27  1  0  0  0  0
 14 15  1  0  0  0  0
 14 16  1  0  0  0  0
 16 28  1  0  0  0  0
 17 18  1  0  0  0  0
 18 29  1  0  0  0  0
 18 30  1  0  0  0  0
 18 31  1  0  0  0  0
M  END
$$$$
