
 OpenBabel07202414133D

 47 49  0  0  0  0  0  0  0  0999 V2000
    1.0524    0.0192   -1.1398 C   0  0  0  0  0  0  0  0  0  0  0  0
    2.5181    0.3562   -1.3896 C   0  0  0  0  0  0  0  0  0  0  0  0
    3.0723    1.6131   -0.7441 C   0  0  0  0  0  0  0  0  0  0  0  0
    2.2164    2.7320   -0.6224 C   0  0  0  0  0  0  0  0  0  0  0  0
    2.6547    3.9135   -0.0425 C   0  0  0  0  0  0  0  0  0  0  0  0
    3.9558    4.0415    0.3974 C   0  0  0  0  0  0  0  0  0  0  0  0
    4.8342    2.9645    0.2491 C   0  0  0  0  0  0  0  0  0  0  0  0
    4.4328    1.7260   -0.3195 C   0  0  0  0  0  0  0  0  0  0  0  0
    5.4362    0.6147   -0.3753 C   0  0  0  0  0  0  0  0  0  0  0  0
    5.5263   -0.2795   -1.4613 C   0  0  0  0  0  0  0  0  0  0  0  0
    6.3735   -1.4041   -1.4450 C   0  0  0  0  0  0  0  0  0  0  0  0
    7.2622   -1.5622   -0.3784 C   0  0  0  0  0  0  0  0  0  0  0  0
    7.2618   -0.6415    0.6635 C   0  0  0  0  0  0  0  0  0  0  0  0
    6.3450    0.4113    0.6825 C   0  0  0  0  0  0  0  0  0  0  0  0
    8.3982   -0.8070    1.9456 Cl  0  0  0  0  0  0  0  0  0  0  0  0
    6.3610   -2.4068   -2.5755 C   0  0  0  0  0  0  0  0  0  0  0  0
    5.0423   -3.1254   -2.8330 C   0  0  0  0  0  0  0  0  0  0  0  0
    4.6161   -3.2408   -3.9788 O   0  0  0  0  0  0  0  0  0  0  0  0
    4.4165   -3.6550   -1.7142 N   0  0  0  0  0  0  0  0  0  0  0  0
    3.2426   -4.4477   -1.7934 C   0  0  0  0  0  0  0  0  0  0  0  0
    3.0503   -5.3934   -2.8047 C   0  0  0  0  0  0  0  0  0  0  0  0
    1.9554   -6.1865   -2.9206 N   0  0  0  0  0  0  0  0  0  0  0  0
    0.9871   -6.0121   -2.0020 C   0  0  0  0  0  0  0  0  0  0  0  0
    1.0752   -5.1045   -0.9585 C   0  0  0  0  0  0  0  0  0  0  0  0
    2.2262   -4.3107   -0.8355 C   0  0  0  0  0  0  0  0  0  0  0  0
    2.2991   -3.3039    0.2727 C   0  0  0  0  0  0  0  0  0  0  0  0
    1.8034    4.9401    0.0866 F   0  0  0  0  0  0  0  0  0  0  0  0
    0.8151   -0.9453   -1.6026 H   0  0  0  0  0  0  0  0  0  0  0  0
    0.3768    0.7596   -1.5754 H   0  0  0  0  0  0  0  0  0  0  0  0
    0.8441   -0.0600   -0.0681 H   0  0  0  0  0  0  0  0  0  0  0  0
    2.6842    0.4250   -2.4715 H   0  0  0  0  0  0  0  0  0  0  0  0
    3.0733   -0.5055   -1.0194 H   0  0  0  0  0  0  0  0  0  0  0  0
    1.1899    2.6983   -0.9681 H   0  0  0  0  0  0  0  0  0  0  0  0
    4.2829    4.9726    0.8491 H   0  0  0  0  0  0  0  0  0  0  0  0
    5.8614    3.1159    0.5805 H   0  0  0  0  0  0  0  0  0  0  0  0
    4.9127   -0.1154   -2.3467 H   0  0  0  0  0  0  0  0  0  0  0  0
    7.9669   -2.3895   -0.3626 H   0  0  0  0  0  0  0  0  0  0  0  0
    6.3465    1.0787    1.5428 H   0  0  0  0  0  0  0  0  0  0  0  0
    7.1154   -3.1854   -2.4121 H   0  0  0  0  0  0  0  0  0  0  0  0
    6.6444   -1.8804   -3.4951 H   0  0  0  0  0  0  0  0  0  0  0  0
    4.6262   -3.2220   -0.8250 H   0  0  0  0  0  0  0  0  0  0  0  0
    3.8087   -5.5775   -3.5611 H   0  0  0  0  0  0  0  0  0  0  0  0
    0.1061   -6.6351   -2.1302 H   0  0  0  0  0  0  0  0  0  0  0  0
    0.2444   -5.0041   -0.2672 H   0  0  0  0  0  0  0  0  0  0  0  0
    1.3294   -3.1658    0.7600 H   0  0  0  0  0  0  0  0  0  0  0  0
    2.5920   -2.3329   -0.1238 H   0  0  0  0  0  0  0  0  0  0  0  0
    3.0284   -3.6144    1.0266 H   0  0  0  0  0  0  0  0  0  0  0  0
  1  2  1  0  0  0  0
  1 28  1  0  0  0  0
  1 29  1  0  0  0  0
  1 30  1  0  0  0  0
  2  3  1  0  0  0  0
  2 31  1  0  0  0  0
  2 32  1  0  0  0  0
  3  4  1  0  0  0  0
  3  8  2  0  0  0  0
  4  5  2  0  0  0  0
  4 33  1  0  0  0  0
  5  6  1  0  0  0  0
  5 27  1  0  0  0  0
  6  7  2  0  0  0  0
  6 34  1  0  0  0  0
  7  8  1  0  0  0  0
  7 35  1  0  0  0  0
  8  9  1  0  0  0  0
  9 10  1  0  0  0  0
  9 14  2  0  0  0  0
 10 11  2  0  0  0  0
 10 36  1  0  0  0  0
 11 12  1  0  0  0  0
 11 16  1  0  0  0  0
 12 13  2  0  0  0  0
 12 37  1  0  0  0  0
 13 14  1  0  0  0  0
 13 15  1  0  0  0  0
 14 38  1  0  0  0  0
 16 17  1  0  0  0  0
 16 39  1  0  0  0  0
 16 40  1  0  0  0  0
 17 18  2  0  0  0  0
 17 19  1  0  0  0  0
 19 20  1  0  0  0  0
 19 41  1  0  0  0  0
 20 21  1  0  0  0  0
 20 25  2  0  0  0  0
 21 22  2  0  0  0  0
 21 42  1  0  0  0  0
 22 23  1  0  0  0  0
 23 24  2  0  0  0  0
 23 43  1  0  0  0  0
 24 25  1  0  0  0  0
 24 44  1  0  0  0  0
 25 26  1  0  0  0  0
 26 45  1  0  0  0  0
 26 46  1  0  0  0  0
 26 47  1  0  0  0  0
M  END
$$$$
