
 OpenBabel07202414123D

 64 66  0  0  1  0  0  0  0  0999 V2000
    3.3688   12.0495    6.1977 C   0  0  0  0  0  0  0  0  0  0  0  0
    4.4127   11.1717    5.4691 C   0  0  0  0  0  0  0  0  0  0  0  0
    4.5326   11.7258    4.0308 C   0  0  0  0  0  0  0  0  0  0  0  0
    5.7656   11.3653    6.1862 C   0  0  0  0  0  0  0  0  0  0  0  0
    4.0525    9.6752    5.4471 C   0  0  0  0  0  0  0  0  0  0  0  0
    2.9915    9.1325    6.1744 C   0  0  0  0  0  0  0  0  0  0  0  0
    2.6922    7.7528    6.1367 C   0  0  0  0  0  0  0  0  0  0  0  0
    3.3977    6.8367    5.3381 C   0  0  0  0  0  0  0  0  0  0  0  0
    4.4714    7.3937    4.6260 C   0  0  0  0  0  0  0  0  0  0  0  0
    4.7971    8.7660    4.6868 C   0  0  0  0  0  0  0  0  0  0  0  0
    3.0282    5.3953    5.2575 N   0  0  0  0  0  0  0  0  0  0  0  0
    3.9661    4.5065    4.4695 C   0  0  2  0  0  0  0  0  0  0  0  0
    3.7448    4.6158    2.9562 C   0  0  0  0  0  0  0  0  0  0  0  0
    2.4908    4.4820    2.3520 C   0  0  0  0  0  0  0  0  0  0  0  0
    2.3601    4.6105    0.9714 C   0  0  0  0  0  0  0  0  0  0  0  0
    3.4968    4.8645    0.2264 C   0  0  0  0  0  0  0  0  0  0  0  0
    4.7323    4.9603    0.7577 N   0  0  0  0  0  0  0  0  0  0  0  0
    4.8271    4.8143    2.1007 C   0  0  0  0  0  0  0  0  0  0  0  0
    4.1955    3.0070    4.8660 C   0  0  0  0  0  0  0  0  0  0  0  0
    3.7870    2.0852    4.1453 O   0  0  0  0  0  0  0  0  0  0  0  0
    4.8950    2.7042    6.0276 N   0  0  0  0  0  0  0  0  0  0  0  0
    5.0861    1.2877    6.3405 C   0  0  0  0  0  0  0  0  0  0  0  0
    5.9470    0.9432    7.5581 C   0  0  0  0  0  0  0  0  0  0  0  0
    5.9890   -0.5645    7.7537 C   0  0  0  0  0  0  0  0  0  0  0  0
    5.0358   -1.2091    8.5601 C   0  0  0  0  0  0  0  0  0  0  0  0
    5.0117   -2.6052    8.6678 C   0  0  0  0  0  0  0  0  0  0  0  0
    5.9422   -3.3749    7.9722 C   0  0  0  0  0  0  0  0  0  0  0  0
    6.8909   -2.7415    7.1814 C   0  0  0  0  0  0  0  0  0  0  0  0
    6.9236   -1.3501    7.0676 C   0  0  0  0  0  0  0  0  0  0  0  0
    7.7809   -3.4785    6.5045 F   0  0  0  0  0  0  0  0  0  0  0  0
    1.6854    5.0483    5.5448 C   0  0  0  0  0  0  0  0  0  0  0  0
    0.7967    5.8619    5.8134 O   0  0  0  0  0  0  0  0  0  0  0  0
    1.2532    3.6175    5.5285 C   0  0  0  0  0  0  0  0  0  0  0  0
   -0.0127    3.2899    5.8346 C   0  0  0  0  0  0  0  0  0  0  0  0
    3.6530   13.1086    6.1711 H   0  0  0  0  0  0  0  0  0  0  0  0
    3.2706   11.7740    7.2539 H   0  0  0  0  0  0  0  0  0  0  0  0
    2.3805   11.9662    5.7303 H   0  0  0  0  0  0  0  0  0  0  0  0
    4.7807   12.7943    4.0396 H   0  0  0  0  0  0  0  0  0  0  0  0
    3.5914   11.6070    3.4818 H   0  0  0  0  0  0  0  0  0  0  0  0
    5.3183   11.2266    3.4541 H   0  0  0  0  0  0  0  0  0  0  0  0
    6.0537   12.4236    6.2051 H   0  0  0  0  0  0  0  0  0  0  0  0
    6.5753   10.8191    5.6895 H   0  0  0  0  0  0  0  0  0  0  0  0
    5.7196   11.0162    7.2242 H   0  0  0  0  0  0  0  0  0  0  0  0
    2.3522    9.7566    6.7944 H   0  0  0  0  0  0  0  0  0  0  0  0
    1.8682    7.4441    6.7738 H   0  0  0  0  0  0  0  0  0  0  0  0
    5.0911    6.8183    3.9522 H   0  0  0  0  0  0  0  0  0  0  0  0
    5.6489    9.1082    4.1016 H   0  0  0  0  0  0  0  0  0  0  0  0
    4.9672    4.9039    4.6824 H   0  0  0  0  0  0  0  0  0  0  0  0
    1.5979    4.2697    2.9288 H   0  0  0  0  0  0  0  0  0  0  0  0
    1.3911    4.5161    0.4945 H   0  0  0  0  0  0  0  0  0  0  0  0
    3.4395    4.9966   -0.8499 H   0  0  0  0  0  0  0  0  0  0  0  0
    5.8471    4.8794    2.4740 H   0  0  0  0  0  0  0  0  0  0  0  0
    5.2810    3.4311    6.6184 H   0  0  0  0  0  0  0  0  0  0  0  0
    5.5205    0.8160    5.4494 H   0  0  0  0  0  0  0  0  0  0  0  0
    4.0831    0.8593    6.4653 H   0  0  0  0  0  0  0  0  0  0  0  0
    5.5515    1.4236    8.4613 H   0  0  0  0  0  0  0  0  0  0  0  0
    6.9673    1.3248    7.4311 H   0  0  0  0  0  0  0  0  0  0  0  0
    4.2868   -0.6289    9.0976 H   0  0  0  0  0  0  0  0  0  0  0  0
    4.2594   -3.0922    9.2849 H   0  0  0  0  0  0  0  0  0  0  0  0
    5.9275   -4.4592    8.0351 H   0  0  0  0  0  0  0  0  0  0  0  0
    7.6719   -0.9030    6.4195 H   0  0  0  0  0  0  0  0  0  0  0  0
    1.9082    2.8168    5.2537 H   0  0  0  0  0  0  0  0  0  0  0  0
   -0.7505    4.0374    6.1142 H   0  0  0  0  0  0  0  0  0  0  0  0
   -0.3435    2.2569    5.8016 H   0  0  0  0  0  0  0  0  0  0  0  0
  1  2  1  0  0  0  0
  1 35  1  0  0  0  0
  1 36  1  0  0  0  0
  1 37  1  0  0  0  0
  2  3  1  0  0  0  0
  2  4  1  0  0  0  0
  2  5  1  0  0  0  0
  3 38  1  0  0  0  0
  3 39  1  0  0  0  0
  3 40  1  0  0  0  0
  4 41  1  0  0  0  0
  4 42  1  0  0  0  0
  4 43  1  0  0  0  0
  5  6  1  0  0  0  0
  5 10  2  0  0  0  0
  6  7  2  0  0  0  0
  6 44  1  0  0  0  0
  7  8  1  0  0  0  0
  7 45  1  0  0  0  0
  8  9  2  0  0  0  0
  8 11  1  0  0  0  0
  9 10  1  0  0  0  0
  9 46  1  0  0  0  0
 10 47  1  0  0  0  0
 11 31  1  0  0  0  0
 12 19  1  0  0  0  0
 12 13  1  0  0  0  0
 12 11  1  0  0  0  0
 12 48  1  1  0  0  0
 13 14  1  0  0  0  0
 13 18  2  0  0  0  0
 14 15  2  0  0  0  0
 14 49  1  0  0  0  0
 15 16  1  0  0  0  0
 15 50  1  0  0  0  0
 16 17  2  0  0  0  0
 16 51  1  0  0  0  0
 17 18  1  0  0  0  0
 18 52  1  0  0  0  0
 19 20  2  0  0  0  0
 19 21  1  0  0  0  0
 21 22  1  0  0  0  0
 21 53  1  0  0  0  0
 22 23  1  0  0  0  0
 22 54  1  0  0  0  0
 22 55  1  0  0  0  0
 23 24  1  0  0  0  0
 23 56  1  0  0  0  0
 23 57  1  0  0  0  0
 24 25  1  0  0  0  0
 24 29  2  0  0  0  0
 25 26  2  0  0  0  0
 25 58  1  0  0  0  0
 26 27  1  0  0  0  0
 26 59  1  0  0  0  0
 27 28  2  0  0  0  0
 27 60  1  0  0  0  0
 28 29  1  0  0  0  0
 28 30  1  0  0  0  0
 29 61  1  0  0  0  0
 31 32  2  0  0  0  0
 31 33  1  0  0  0  0
 33 34  2  0  0  0  0
 33 62  1  0  0  0  0
 34 63  1  0  0  0  0
 34 64  1  0  0  0  0
M  END
$$$$
