
 OpenBabel07202414193D

 56 59  0  0  1  0  0  0  0  0999 V2000
   -9.0548    0.3321    5.0514 F   0  0  0  0  0  0  0  0  0  0  0  0
   -7.8125    0.1867    4.5719 C   0  0  0  0  0  0  0  0  0  0  0  0
   -6.7647   -0.0596    5.4492 C   0  0  0  0  0  0  0  0  0  0  0  0
   -5.4715   -0.1931    4.9492 C   0  0  0  0  0  0  0  0  0  0  0  0
   -5.2389   -0.0903    3.5737 C   0  0  0  0  0  0  0  0  0  0  0  0
   -6.3002    0.1346    2.6823 C   0  0  0  0  0  0  0  0  0  0  0  0
   -6.0656    0.2546    1.1954 C   0  0  0  0  0  0  0  0  0  0  0  0
   -5.4001   -0.9609    0.5382 C   0  0  0  0  0  0  0  0  0  0  0  0
   -6.1329   -2.2076    0.6624 N   0  0  0  0  0  0  0  0  0  0  0  0
   -5.6511   -3.3617    0.0753 C   0  0  0  0  0  0  0  0  0  0  0  0
   -4.5345   -3.3770   -0.4428 O   0  0  0  0  0  0  0  0  0  0  0  0
   -6.5133   -4.6597    0.1263 C   0  0  3  0  0  0  0  0  0  0  0  0
   -6.2331   -5.5722    1.2939 N   0  0  0  0  0  0  0  0  0  0  0  0
   -6.9292   -5.4870    2.5143 C   0  0  0  0  0  0  0  0  0  0  0  0
   -7.8545   -4.6976    2.6800 O   0  0  0  0  0  0  0  0  0  0  0  0
   -6.5935   -6.3882    3.6333 C   0  0  0  0  0  0  0  0  0  0  0  0
   -7.5101   -6.9002    4.5449 C   0  0  0  0  0  0  0  0  0  0  0  0
   -6.8398   -7.6342    5.4745 O   0  0  0  0  0  0  0  0  0  0  0  0
   -5.5367   -7.5179    5.1073 C   0  0  0  0  0  0  0  0  0  0  0  0
   -5.3310   -6.8024    4.0231 N   0  0  0  0  0  0  0  0  0  0  0  0
   -5.1017   -6.4330    1.1618 C   0  0  0  0  0  0  0  0  0  0  0  0
   -5.2714   -7.7683    0.8006 C   0  0  0  0  0  0  0  0  0  0  0  0
   -4.1732   -8.6336    0.8060 C   0  0  0  0  0  0  0  0  0  0  0  0
   -2.9067   -8.1464    1.1422 C   0  0  0  0  0  0  0  0  0  0  0  0
   -1.7069   -9.0924    1.1037 C   0  0  0  0  0  0  0  0  0  0  0  0
   -2.0384  -10.3574    0.6927 F   0  0  0  0  0  0  0  0  0  0  0  0
   -0.7315   -8.6857    0.2410 F   0  0  0  0  0  0  0  0  0  0  0  0
   -1.0983   -9.2612    2.3128 F   0  0  0  0  0  0  0  0  0  0  0  0
   -2.7200   -6.8324    1.4659 N   0  0  0  0  0  0  0  0  0  0  0  0
   -3.8077   -6.0165    1.4726 C   0  0  0  0  0  0  0  0  0  0  0  0
   -7.9751   -4.4569   -0.3074 C   0  0  0  0  0  0  0  0  0  0  0  0
   -8.4929   -5.0774   -1.4571 C   0  0  0  0  0  0  0  0  0  0  0  0
   -9.8435   -4.9130   -1.7934 C   0  0  0  0  0  0  0  0  0  0  0  0
  -10.6333   -4.0991   -1.0092 C   0  0  0  0  0  0  0  0  0  0  0  0
  -10.1671   -3.4213    0.0492 N   0  0  0  0  0  0  0  0  0  0  0  0
   -8.8722   -3.6353    0.3774 C   0  0  0  0  0  0  0  0  0  0  0  0
   -7.5935    0.2877    3.2014 C   0  0  0  0  0  0  0  0  0  0  0  0
   -6.9621   -0.1407    6.5131 H   0  0  0  0  0  0  0  0  0  0  0  0
   -4.6431   -0.3761    5.6292 H   0  0  0  0  0  0  0  0  0  0  0  0
   -4.2179   -0.1839    3.2080 H   0  0  0  0  0  0  0  0  0  0  0  0
   -5.4277    1.1309    1.0244 H   0  0  0  0  0  0  0  0  0  0  0  0
   -7.0164    0.4690    0.6885 H   0  0  0  0  0  0  0  0  0  0  0  0
   -4.4014   -1.1281    0.9429 H   0  0  0  0  0  0  0  0  0  0  0  0
   -5.2981   -0.7629   -0.5365 H   0  0  0  0  0  0  0  0  0  0  0  0
   -7.0316   -2.1651    1.1042 H   0  0  0  0  0  0  0  0  0  0  0  0
   -6.0926   -5.2226   -0.7315 H   0  0  0  0  0  0  0  0  0  0  0  0
   -8.5815   -6.8369    4.6645 H   0  0  0  0  0  0  0  0  0  0  0  0
   -4.8094   -8.0159    5.7331 H   0  0  0  0  0  0  0  0  0  0  0  0
   -6.2499   -8.1511    0.5244 H   0  0  0  0  0  0  0  0  0  0  0  0
   -4.3096   -9.6813    0.5496 H   0  0  0  0  0  0  0  0  0  0  0  0
   -3.5999   -4.9903    1.7640 H   0  0  0  0  0  0  0  0  0  0  0  0
   -7.8686   -5.6890   -2.0999 H   0  0  0  0  0  0  0  0  0  0  0  0
  -10.2718   -5.4178   -2.6520 H   0  0  0  0  0  0  0  0  0  0  0  0
  -11.6947   -3.9764   -1.1965 H   0  0  0  0  0  0  0  0  0  0  0  0
   -8.6100   -3.1010    1.2810 H   0  0  0  0  0  0  0  0  0  0  0  0
   -8.4417    0.4901    2.5536 H   0  0  0  0  0  0  0  0  0  0  0  0
  1  2  1  0  0  0  0
  2  3  1  0  0  0  0
  2 37  2  0  0  0  0
  3  4  2  0  0  0  0
  3 38  1  0  0  0  0
  4  5  1  0  0  0  0
  4 39  1  0  0  0  0
  5  6  2  0  0  0  0
  5 40  1  0  0  0  0
  6  7  1  0  0  0  0
  6 37  1  0  0  0  0
  7  8  1  0  0  0  0
  7 41  1  0  0  0  0
  7 42  1  0  0  0  0
  8  9  1  0  0  0  0
  8 43  1  0  0  0  0
  8 44  1  0  0  0  0
  9 10  1  0  0  0  0
  9 45  1  0  0  0  0
 10 11  2  0  0  0  0
 10 12  1  0  0  0  0
 12 13  1  0  0  0  0
 12 31  1  0  0  0  0
 12 46  1  0  0  0  0
 13 14  1  0  0  0  0
 13 21  1  0  0  0  0
 14 15  2  0  0  0  0
 14 16  1  0  0  0  0
 16 17  2  0  0  0  0
 16 20  1  0  0  0  0
 17 18  1  0  0  0  0
 17 47  1  0  0  0  0
 18 19  1  0  0  0  0
 19 20  2  0  0  0  0
 19 48  1  0  0  0  0
 21 22  1  0  0  0  0
 21 30  2  0  0  0  0
 22 23  2  0  0  0  0
 22 49  1  0  0  0  0
 23 24  1  0  0  0  0
 23 50  1  0  0  0  0
 24 25  1  0  0  0  0
 24 29  2  0  0  0  0
 25 26  1  0  0  0  0
 25 27  1  0  0  0  0
 25 28  1  0  0  0  0
 29 30  1  0  0  0  0
 30 51  1  0  0  0  0
 31 32  1  0  0  0  0
 31 36  2  0  0  0  0
 32 33  2  0  0  0  0
 32 52  1  0  0  0  0
 33 34  1  0  0  0  0
 33 53  1  0  0  0  0
 34 35  2  0  0  0  0
 34 54  1  0  0  0  0
 35 36  1  0  0  0  0
 36 55  1  0  0  0  0
 37 56  1  0  0  0  0
M  END
$$$$
