
 OpenBabel07202414123D

 25 25  0  0  1  0  0  0  0  0999 V2000
    1.1615    0.0668    0.0168 C   0  0  0  0  0  0  0  0  0  0  0  0
    2.6777   -0.1448   -0.0326 C   0  0  3  0  0  0  0  0  0  0  0  0
    3.0593   -1.6017   -0.2206 C   0  0  0  0  0  0  0  0  0  0  0  0
    2.6234   -2.3416   -1.3323 C   0  0  0  0  0  0  0  0  0  0  0  0
    3.0285   -3.6635   -1.4997 C   0  0  0  0  0  0  0  0  0  0  0  0
    3.8656   -4.2833   -0.5842 C   0  0  0  0  0  0  0  0  0  0  0  0
    4.3057   -3.5602    0.5183 C   0  0  0  0  0  0  0  0  0  0  0  0
    3.9116   -2.2310    0.7024 C   0  0  0  0  0  0  0  0  0  0  0  0
    5.3554   -4.3047    1.6606 Cl  0  0  0  0  0  0  0  0  0  0  0  0
    2.6081   -4.3450   -2.5736 F   0  0  0  0  0  0  0  0  0  0  0  0
    3.2794    0.6493   -1.0885 N   0  0  0  0  0  0  0  0  0  0  0  0
    3.5988    1.9782   -0.9253 C   0  0  0  0  0  0  0  0  0  0  0  0
    3.5301    2.5501    0.1618 O   0  0  0  0  0  0  0  0  0  0  0  0
    4.1477    2.6755   -2.1574 C   0  0  0  0  0  0  0  0  0  0  0  0
    3.3767    2.0649   -3.6424 Cl  0  0  0  0  0  0  0  0  0  0  0  0
    0.7214   -0.4626    0.8692 H   0  0  0  0  0  0  0  0  0  0  0  0
    0.6646   -0.2905   -0.8918 H   0  0  0  0  0  0  0  0  0  0  0  0
    0.9179    1.1302    0.1179 H   0  0  0  0  0  0  0  0  0  0  0  0
    3.0830    0.2112    0.9238 H   0  0  0  0  0  0  0  0  0  0  0  0
    1.9762   -1.9009   -2.0858 H   0  0  0  0  0  0  0  0  0  0  0  0
    4.1679   -5.3132   -0.7428 H   0  0  0  0  0  0  0  0  0  0  0  0
    4.2800   -1.6811    1.5682 H   0  0  0  0  0  0  0  0  0  0  0  0
    3.2303    0.3017   -2.0403 H   0  0  0  0  0  0  0  0  0  0  0  0
    5.2250    2.5034   -2.2255 H   0  0  0  0  0  0  0  0  0  0  0  0
    3.9413    3.7465   -2.0927 H   0  0  0  0  0  0  0  0  0  0  0  0
  1  2  1  0  0  0  0
  1 16  1  0  0  0  0
  1 17  1  0  0  0  0
  1 18  1  0  0  0  0
  2  3  1  0  0  0  0
  2 11  1  0  0  0  0
  2 19  1  0  0  0  0
  3  4  1  0  0  0  0
  3  8  2  0  0  0  0
  4  5  2  0  0  0  0
  4 20  1  0  0  0  0
  5  6  1  0  0  0  0
  5 10  1  0  0  0  0
  6  7  2  0  0  0  0
  6 21  1  0  0  0  0
  7  8  1  0  0  0  0
  7  9  1  0  0  0  0
  8 22  1  0  0  0  0
 11 12  1  0  0  0  0
 11 23  1  0  0  0  0
 12 13  2  0  0  0  0
 12 14  1  0  0  0  0
 14 15  1  0  0  0  0
 14 24  1  0  0  0  0
 14 25  1  0  0  0  0
M  END
$$$$
