
 OpenBabel07202414133D

 54 55  0  0  1  0  0  0  0  0999 V2000
    3.9001   -7.5637   -2.0729 C   0  0  0  0  0  0  0  0  0  0  0  0
    3.7819   -6.1149   -2.5146 C   0  0  0  0  0  0  0  0  0  0  0  0
    4.3129   -5.2074   -1.5217 N   0  0  0  0  0  0  0  0  0  0  0  0
    4.3915   -3.8468   -1.7498 C   0  0  0  0  0  0  0  0  0  0  0  0
    3.9144   -3.3210   -2.7567 O   0  0  0  0  0  0  0  0  0  0  0  0
    5.1208   -3.0026   -0.6542 C   0  0  3  0  0  0  0  0  0  0  0  0
    4.4682   -3.1616    0.7156 C   0  0  0  0  0  0  0  0  0  0  0  0
    4.8760   -4.0962    1.6737 C   0  0  0  0  0  0  0  0  0  0  0  0
    4.1843   -4.2278    2.8725 C   0  0  0  0  0  0  0  0  0  0  0  0
    3.0935   -3.4096    3.0904 C   0  0  0  0  0  0  0  0  0  0  0  0
    2.6655   -2.4872    2.2046 N   0  0  0  0  0  0  0  0  0  0  0  0
    3.3521   -2.3907    1.0411 C   0  0  0  0  0  0  0  0  0  0  0  0
    6.6157   -3.0797   -0.6623 N   0  0  0  0  0  0  0  0  0  0  0  0
    7.2843   -1.8702   -0.3144 C   0  0  0  0  0  0  0  0  0  0  0  0
    7.5139   -0.9016   -1.2909 C   0  0  0  0  0  0  0  0  0  0  0  0
    8.2943    0.2263   -0.9938 C   0  0  0  0  0  0  0  0  0  0  0  0
    8.8468    0.4300    0.2847 C   0  0  0  0  0  0  0  0  0  0  0  0
    8.5526   -0.5348    1.2672 C   0  0  0  0  0  0  0  0  0  0  0  0
    7.7869   -1.6702    0.9730 C   0  0  0  0  0  0  0  0  0  0  0  0
    9.7406    1.6401    0.6270 C   0  0  0  0  0  0  0  0  0  0  0  0
   10.0110    2.5639   -0.5822 C   0  0  0  0  0  0  0  0  0  0  0  0
    9.0736    2.4964    1.7247 C   0  0  0  0  0  0  0  0  0  0  0  0
   11.1186    1.1660    1.1459 C   0  0  0  0  0  0  0  0  0  0  0  0
    7.2533   -4.3142   -0.5520 C   0  0  0  0  0  0  0  0  0  0  0  0
    6.6549   -5.3875   -0.5379 O   0  0  0  0  0  0  0  0  0  0  0  0
    8.7484   -4.3307   -0.4869 C   0  0  0  0  0  0  0  0  0  0  0  0
    9.3912   -5.4934   -0.2977 C   0  0  0  0  0  0  0  0  0  0  0  0
    3.4525   -8.2287   -2.8182 H   0  0  0  0  0  0  0  0  0  0  0  0
    3.3983   -7.7322   -1.1143 H   0  0  0  0  0  0  0  0  0  0  0  0
    4.9508   -7.8502   -1.9515 H   0  0  0  0  0  0  0  0  0  0  0  0
    2.7333   -5.8524   -2.6886 H   0  0  0  0  0  0  0  0  0  0  0  0
    4.3306   -5.9606   -3.4495 H   0  0  0  0  0  0  0  0  0  0  0  0
    5.0520   -5.5749   -0.9188 H   0  0  0  0  0  0  0  0  0  0  0  0
    4.9005   -1.9677   -0.9673 H   0  0  0  0  0  0  0  0  0  0  0  0
    5.7212   -4.7537    1.5098 H   0  0  0  0  0  0  0  0  0  0  0  0
    4.4880   -4.9639    3.6082 H   0  0  0  0  0  0  0  0  0  0  0  0
    2.5160   -3.4833    4.0067 H   0  0  0  0  0  0  0  0  0  0  0  0
    2.9523   -1.6469    0.3541 H   0  0  0  0  0  0  0  0  0  0  0  0
    7.1348   -1.0346   -2.3008 H   0  0  0  0  0  0  0  0  0  0  0  0
    8.4719    0.9306   -1.8027 H   0  0  0  0  0  0  0  0  0  0  0  0
    8.9301   -0.4227    2.2808 H   0  0  0  0  0  0  0  0  0  0  0  0
    7.5985   -2.3974    1.7612 H   0  0  0  0  0  0  0  0  0  0  0  0
    9.0828    2.9938   -0.9760 H   0  0  0  0  0  0  0  0  0  0  0  0
   10.5088    2.0230   -1.3960 H   0  0  0  0  0  0  0  0  0  0  0  0
   10.6623    3.4020   -0.3065 H   0  0  0  0  0  0  0  0  0  0  0  0
    8.1071    2.8891    1.3890 H   0  0  0  0  0  0  0  0  0  0  0  0
    9.7049    3.3522    1.9943 H   0  0  0  0  0  0  0  0  0  0  0  0
    8.8980    1.9272    2.6441 H   0  0  0  0  0  0  0  0  0  0  0  0
   11.6431    0.5679    0.3919 H   0  0  0  0  0  0  0  0  0  0  0  0
   11.0361    0.5580    2.0530 H   0  0  0  0  0  0  0  0  0  0  0  0
   11.7597    2.0209    1.3946 H   0  0  0  0  0  0  0  0  0  0  0  0
    9.3073   -3.4126   -0.5988 H   0  0  0  0  0  0  0  0  0  0  0  0
    8.8522   -6.4323   -0.1991 H   0  0  0  0  0  0  0  0  0  0  0  0
   10.4714   -5.5290   -0.2445 H   0  0  0  0  0  0  0  0  0  0  0  0
  1  2  1  0  0  0  0
  1 28  1  0  0  0  0
  1 29  1  0  0  0  0
  1 30  1  0  0  0  0
  2  3  1  0  0  0  0
  2 31  1  0  0  0  0
  2 32  1  0  0  0  0
  3  4  1  0  0  0  0
  3 33  1  0  0  0  0
  4  5  2  0  0  0  0
  4  6  1  0  0  0  0
  6  7  1  0  0  0  0
  6 13  1  0  0  0  0
  6 34  1  0  0  0  0
  7  8  1  0  0  0  0
  7 12  2  0  0  0  0
  8  9  2  0  0  0  0
  8 35  1  0  0  0  0
  9 10  1  0  0  0  0
  9 36  1  0  0  0  0
 10 11  2  0  0  0  0
 10 37  1  0  0  0  0
 11 12  1  0  0  0  0
 12 38  1  0  0  0  0
 13 14  1  0  0  0  0
 13 24  1  0  0  0  0
 14 15  1  0  0  0  0
 14 19  2  0  0  0  0
 15 16  2  0  0  0  0
 15 39  1  0  0  0  0
 16 17  1  0  0  0  0
 16 40  1  0  0  0  0
 17 18  2  0  0  0  0
 17 20  1  0  0  0  0
 18 19  1  0  0  0  0
 18 41  1  0  0  0  0
 19 42  1  0  0  0  0
 20 21  1  0  0  0  0
 20 22  1  0  0  0  0
 20 23  1  0  0  0  0
 21 43  1  0  0  0  0
 21 44  1  0  0  0  0
 21 45  1  0  0  0  0
 22 46  1  0  0  0  0
 22 47  1  0  0  0  0
 22 48  1  0  0  0  0
 23 49  1  0  0  0  0
 23 50  1  0  0  0  0
 23 51  1  0  0  0  0
 24 25  2  0  0  0  0
 24 26  1  0  0  0  0
 26 27  2  0  0  0  0
 26 52  1  0  0  0  0
 27 53  1  0  0  0  0
 27 54  1  0  0  0  0
M  END
$$$$
