
 OpenBabel07202414143D

 62 66  0  0  1  0  0  0  0  0999 V2000
    2.3708    0.8022    0.9200 C   0  0  0  0  0  0  0  0  0  0  0  0
    2.1778   -0.2035   -0.0666 O   0  0  0  0  0  0  0  0  0  0  0  0
    2.9278   -0.0016   -1.3004 C   0  0  0  0  0  0  0  0  0  0  0  0
    4.4129   -0.1982   -1.1069 C   0  0  0  0  0  0  0  0  0  0  0  0
    5.3400   -0.1110   -2.6280 S   0  0  0  0  0  0  0  0  0  0  0  0
    4.9329   -1.1644   -3.5272 O   0  0  0  0  0  0  0  0  0  0  0  0
    5.3865    1.2598   -3.0874 O   0  0  0  0  0  0  0  0  0  0  0  0
    6.8966   -0.5531   -2.1105 N   0  0  0  0  0  0  0  0  0  0  0  0
    7.1593   -2.0046   -1.9543 C   0  0  0  0  0  0  0  0  0  0  0  0
    8.1712   -2.4485   -3.0060 C   0  0  3  0  0  0  0  0  0  0  0  0
    7.4697   -2.6671   -4.3602 C   0  0  0  0  0  0  0  0  0  0  0  0
    6.7134   -3.6265   -4.4927 O   0  0  0  0  0  0  0  0  0  0  0  0
    7.7815   -1.7438   -5.3455 N   0  0  0  0  0  0  0  0  0  0  0  0
    7.4196   -1.7719   -6.7160 C   0  0  0  0  0  0  0  0  0  0  0  0
    6.5503   -2.7229   -7.2455 C   0  0  0  0  0  0  0  0  0  0  0  0
    6.3494   -2.9126   -8.5692 N   0  0  0  0  0  0  0  0  0  0  0  0
    6.9962   -2.0765   -9.4054 C   0  0  0  0  0  0  0  0  0  0  0  0
    7.7733   -0.9934   -8.9986 C   0  0  0  0  0  0  0  0  0  0  0  0
    8.3015   -0.0892   -9.9403 C   0  0  0  0  0  0  0  0  0  0  0  0
    9.0554    1.0056   -9.5202 C   0  0  0  0  0  0  0  0  0  0  0  0
    9.7187    2.1375  -10.7203 S   0  0  0  0  0  0  0  0  0  0  0  0
    8.4786    3.4077  -10.8496 C   0  0  0  0  0  0  0  0  0  0  0  0
   10.9054    2.7335  -10.1428 O   0  0  0  0  0  0  0  0  0  0  0  0
    9.7688    1.4365  -11.9879 O   0  0  0  0  0  0  0  0  0  0  0  0
    9.3464    1.1805   -8.1718 C   0  0  0  0  0  0  0  0  0  0  0  0
    8.8266    0.2777   -7.2345 C   0  0  0  0  0  0  0  0  0  0  0  0
    8.0097   -0.8266   -7.6125 C   0  0  0  0  0  0  0  0  0  0  0  0
    9.3593   -1.4961   -3.0441 C   0  0  0  0  0  0  0  0  0  0  0  0
   10.5571   -1.9278   -3.6437 C   0  0  0  0  0  0  0  0  0  0  0  0
   11.5996   -1.0274   -3.8529 C   0  0  0  0  0  0  0  0  0  0  0  0
   13.0212   -1.5496   -4.6641 Cl  0  0  0  0  0  0  0  0  0  0  0  0
   11.4752    0.3004   -3.4505 C   0  0  0  0  0  0  0  0  0  0  0  0
   10.3039    0.7341   -2.8212 C   0  0  0  0  0  0  0  0  0  0  0  0
    9.2401   -0.1552   -2.6146 C   0  0  0  0  0  0  0  0  0  0  0  0
    7.9532    0.3850   -2.0785 C   0  0  0  0  0  0  0  0  0  0  0  0
    7.8396    1.5356   -1.6912 O   0  0  0  0  0  0  0  0  0  0  0  0
    2.2925    0.9625   -2.2856 C   0  0  0  0  0  0  0  0  0  0  0  0
    2.1484   -0.5158   -2.5030 C   0  0  0  0  0  0  0  0  0  0  0  0
    1.6432    0.6431    1.7202 H   0  0  0  0  0  0  0  0  0  0  0  0
    2.2220    1.8002    0.4996 H   0  0  0  0  0  0  0  0  0  0  0  0
    3.3730    0.7170    1.3494 H   0  0  0  0  0  0  0  0  0  0  0  0
    4.5890   -1.1843   -0.6621 H   0  0  0  0  0  0  0  0  0  0  0  0
    4.8181    0.5744   -0.4469 H   0  0  0  0  0  0  0  0  0  0  0  0
    6.2457   -2.6065   -1.9722 H   0  0  0  0  0  0  0  0  0  0  0  0
    7.5873   -2.1467   -0.9493 H   0  0  0  0  0  0  0  0  0  0  0  0
    8.5523   -3.4356   -2.7081 H   0  0  0  0  0  0  0  0  0  0  0  0
    8.4713   -1.0488   -5.1172 H   0  0  0  0  0  0  0  0  0  0  0  0
    5.9698   -3.3936   -6.6202 H   0  0  0  0  0  0  0  0  0  0  0  0
    6.8580   -2.3085  -10.4589 H   0  0  0  0  0  0  0  0  0  0  0  0
    8.1070   -0.2381  -11.0020 H   0  0  0  0  0  0  0  0  0  0  0  0
    8.3867    3.9231   -9.8912 H   0  0  0  0  0  0  0  0  0  0  0  0
    7.5271    2.9628  -11.1460 H   0  0  0  0  0  0  0  0  0  0  0  0
    8.8045    4.1178  -11.6164 H   0  0  0  0  0  0  0  0  0  0  0  0
    9.9695    2.0059   -7.8352 H   0  0  0  0  0  0  0  0  0  0  0  0
    9.0599    0.4796   -6.1927 H   0  0  0  0  0  0  0  0  0  0  0  0
   10.6562   -2.9544   -3.9965 H   0  0  0  0  0  0  0  0  0  0  0  0
   12.2796    1.0079   -3.6398 H   0  0  0  0  0  0  0  0  0  0  0  0
   10.2110    1.7813   -2.5324 H   0  0  0  0  0  0  0  0  0  0  0  0
    2.9038    1.5177   -2.9876 H   0  0  0  0  0  0  0  0  0  0  0  0
    1.4009    1.5039   -1.9889 H   0  0  0  0  0  0  0  0  0  0  0  0
    2.6297   -0.9473   -3.3686 H   0  0  0  0  0  0  0  0  0  0  0  0
    1.1741   -0.9627   -2.3241 H   0  0  0  0  0  0  0  0  0  0  0  0
  1  2  1  0  0  0  0
  1 39  1  0  0  0  0
  1 40  1  0  0  0  0
  1 41  1  0  0  0  0
  2  3  1  0  0  0  0
  3  4  1  0  0  0  0
  3 37  1  0  0  0  0
  3 38  1  0  0  0  0
  4  5  1  0  0  0  0
  4 42  1  0  0  0  0
  4 43  1  0  0  0  0
  5  6  2  0  0  0  0
  5  7  2  0  0  0  0
  5  8  1  0  0  0  0
  8  9  1  0  0  0  0
  8 35  1  0  0  0  0
  9 10  1  0  0  0  0
  9 44  1  0  0  0  0
  9 45  1  0  0  0  0
 10 11  1  0  0  0  0
 10 28  1  0  0  0  0
 10 46  1  0  0  0  0
 11 12  2  0  0  0  0
 11 13  1  0  0  0  0
 13 14  1  0  0  0  0
 13 47  1  0  0  0  0
 14 15  1  0  0  0  0
 14 27  2  0  0  0  0
 15 16  2  0  0  0  0
 15 48  1  0  0  0  0
 16 17  1  0  0  0  0
 17 18  2  0  0  0  0
 17 49  1  0  0  0  0
 18 19  1  0  0  0  0
 18 27  1  0  0  0  0
 19 20  2  0  0  0  0
 19 50  1  0  0  0  0
 20 21  1  0  0  0  0
 20 25  1  0  0  0  0
 21 22  1  0  0  0  0
 21 23  2  0  0  0  0
 21 24  2  0  0  0  0
 22 51  1  0  0  0  0
 22 52  1  0  0  0  0
 22 53  1  0  0  0  0
 25 26  2  0  0  0  0
 25 54  1  0  0  0  0
 26 27  1  0  0  0  0
 26 55  1  0  0  0  0
 28 29  1  0  0  0  0
 28 34  2  0  0  0  0
 29 30  2  0  0  0  0
 29 56  1  0  0  0  0
 30 31  1  0  0  0  0
 30 32  1  0  0  0  0
 32 33  2  0  0  0  0
 32 57  1  0  0  0  0
 33 34  1  0  0  0  0
 33 58  1  0  0  0  0
 34 35  1  0  0  0  0
 35 36  2  0  0  0  0
 37 38  1  0  0  0  0
 37 59  1  0  0  0  0
 37 60  1  0  0  0  0
 38 61  1  0  0  0  0
 38 62  1  0  0  0  0
M  END
$$$$
