
 OpenBabel07202414183D

 40 43  0  0  1  0  0  0  0  0999 V2000
    3.6371   -7.4588   -7.0132 F   0  0  0  0  0  0  0  0  0  0  0  0
    2.6181   -7.4120   -6.1450 C   0  0  0  0  0  0  0  0  0  0  0  0
    1.3314   -7.6292   -6.6002 C   0  0  0  0  0  0  0  0  0  0  0  0
    0.2865   -7.6106   -5.6886 C   0  0  0  0  0  0  0  0  0  0  0  0
    0.5318   -7.3631   -4.3200 C   0  0  0  0  0  0  0  0  0  0  0  0
   -0.5221   -7.3687   -3.4129 C   0  0  0  0  0  0  0  0  0  0  0  0
   -0.3800   -7.1525   -2.0952 N   0  0  0  0  0  0  0  0  0  0  0  0
    0.8787   -6.9075   -1.6423 C   0  0  0  0  0  0  0  0  0  0  0  0
    2.0333   -6.8707   -2.4305 C   0  0  0  0  0  0  0  0  0  0  0  0
    3.3438   -6.5888   -1.8838 N   0  0  0  0  0  0  0  0  0  0  0  0
    3.6566   -6.3793   -0.5433 C   0  0  0  0  0  0  0  0  0  0  0  0
    2.8249   -6.3936    0.3654 O   0  0  0  0  0  0  0  0  0  0  0  0
    5.1497   -6.1873   -0.1605 C   0  0  2  0  0  0  0  0  0  0  0  0
    5.8531   -5.0332   -0.9113 C   0  0  0  0  0  0  0  0  0  0  0  0
    7.3716   -5.1614   -1.0545 C   0  0  0  0  0  0  0  0  0  0  0  0
    7.9682   -6.0754   -0.0901 N   0  0  0  0  0  0  0  0  0  0  0  0
    7.3684   -7.3451   -0.2123 C   0  0  0  0  0  0  0  0  0  0  0  0
    8.1811   -8.4736   -0.3271 C   0  0  0  0  0  0  0  0  0  0  0  0
    7.6069   -9.7421   -0.3584 C   0  0  0  0  0  0  0  0  0  0  0  0
    8.6401  -11.0879   -0.6831 Cl  0  0  0  0  0  0  0  0  0  0  0  0
    6.2309   -9.8810   -0.1507 C   0  0  0  0  0  0  0  0  0  0  0  0
    5.4691  -11.4268   -0.0340 Cl  0  0  0  0  0  0  0  0  0  0  0  0
    5.4180   -8.7448   -0.0377 C   0  0  0  0  0  0  0  0  0  0  0  0
    5.9710   -7.4653   -0.1614 C   0  0  0  0  0  0  0  0  0  0  0  0
    1.8493   -7.1150   -3.8281 C   0  0  0  0  0  0  0  0  0  0  0  0
    2.8823   -7.1555   -4.7945 C   0  0  0  0  0  0  0  0  0  0  0  0
    1.1525   -7.8351   -7.6542 H   0  0  0  0  0  0  0  0  0  0  0  0
   -0.7306   -7.7934   -6.0437 H   0  0  0  0  0  0  0  0  0  0  0  0
   -1.5461   -7.5586   -3.7296 H   0  0  0  0  0  0  0  0  0  0  0  0
    0.8901   -6.7423   -0.5715 H   0  0  0  0  0  0  0  0  0  0  0  0
    4.1095   -6.5690   -2.5413 H   0  0  0  0  0  0  0  0  0  0  0  0
    5.1236   -5.8741    0.8961 H   0  0  0  0  0  0  0  0  0  0  0  0
    5.6413   -4.1007   -0.3707 H   0  0  0  0  0  0  0  0  0  0  0  0
    5.4348   -4.8792   -1.9117 H   0  0  0  0  0  0  0  0  0  0  0  0
    7.8538   -4.1820   -0.9492 H   0  0  0  0  0  0  0  0  0  0  0  0
    7.6325   -5.5158   -2.0614 H   0  0  0  0  0  0  0  0  0  0  0  0
    7.8351   -5.7327    0.8695 H   0  0  0  0  0  0  0  0  0  0  0  0
    9.2567   -8.3491   -0.4305 H   0  0  0  0  0  0  0  0  0  0  0  0
    4.3526   -8.8720    0.1465 H   0  0  0  0  0  0  0  0  0  0  0  0
    3.9217   -7.0118   -4.5262 H   0  0  0  0  0  0  0  0  0  0  0  0
  1  2  1  0  0  0  0
  2  3  1  0  0  0  0
  2 26  2  0  0  0  0
  3  4  2  0  0  0  0
  3 27  1  0  0  0  0
  4  5  1  0  0  0  0
  4 28  1  0  0  0  0
  5  6  1  0  0  0  0
  5 25  2  0  0  0  0
  6  7  2  0  0  0  0
  6 29  1  0  0  0  0
  7  8  1  0  0  0  0
  8  9  2  0  0  0  0
  8 30  1  0  0  0  0
  9 10  1  0  0  0  0
  9 25  1  0  0  0  0
 10 11  1  0  0  0  0
 10 31  1  0  0  0  0
 11 12  2  0  0  0  0
 13 14  1  0  0  0  0
 13 24  1  0  0  0  0
 13 11  1  0  0  0  0
 13 32  1  1  0  0  0
 14 15  1  0  0  0  0
 14 33  1  0  0  0  0
 14 34  1  0  0  0  0
 15 16  1  0  0  0  0
 15 35  1  0  0  0  0
 15 36  1  0  0  0  0
 16 17  1  0  0  0  0
 16 37  1  0  0  0  0
 17 18  1  0  0  0  0
 17 24  2  0  0  0  0
 18 19  2  0  0  0  0
 18 38  1  0  0  0  0
 19 20  1  0  0  0  0
 19 21  1  0  0  0  0
 21 22  1  0  0  0  0
 21 23  2  0  0  0  0
 23 24  1  0  0  0  0
 23 39  1  0  0  0  0
 25 26  1  0  0  0  0
 26 40  1  0  0  0  0
M  END
$$$$
