
 OpenBabel07202414123D

 67 70  0  0  1  0  0  0  0  0999 V2000
   -0.1418  -12.8629    0.9712 C   0  0  0  0  0  0  0  0  0  0  0  0
    1.2646  -12.4386    0.4825 C   0  0  0  0  0  0  0  0  0  0  0  0
    2.2908  -13.4587    1.0102 C   0  0  0  0  0  0  0  0  0  0  0  0
    1.2284  -12.5202   -1.0608 C   0  0  0  0  0  0  0  0  0  0  0  0
    1.6722  -11.0431    0.9830 C   0  0  0  0  0  0  0  0  0  0  0  0
    1.0957  -10.4715    2.1189 C   0  0  0  0  0  0  0  0  0  0  0  0
    1.4558   -9.1899    2.5698 C   0  0  0  0  0  0  0  0  0  0  0  0
    2.4506   -8.4202    1.9528 C   0  0  0  0  0  0  0  0  0  0  0  0
    3.0845   -9.0385    0.8603 C   0  0  0  0  0  0  0  0  0  0  0  0
    2.6903  -10.3023    0.3725 C   0  0  0  0  0  0  0  0  0  0  0  0
    2.7829   -7.0557    2.4050 N   0  0  0  0  0  0  0  0  0  0  0  0
    3.5672   -6.1904    1.4564 C   0  0  2  0  0  0  0  0  0  0  0  0
    5.0731   -6.0993    1.7046 C   0  0  0  0  0  0  0  0  0  0  0  0
    5.7054   -6.3937    2.9165 C   0  0  0  0  0  0  0  0  0  0  0  0
    7.0907   -6.2931    3.0286 C   0  0  0  0  0  0  0  0  0  0  0  0
    7.8185   -5.9323    1.9100 C   0  0  0  0  0  0  0  0  0  0  0  0
    7.2588   -5.6455    0.7185 N   0  0  0  0  0  0  0  0  0  0  0  0
    5.9093   -5.7143    0.6515 C   0  0  0  0  0  0  0  0  0  0  0  0
    2.9144   -4.8644    0.9392 C   0  0  0  0  0  0  0  0  0  0  0  0
    3.4163   -3.7508    1.0942 O   0  0  0  0  0  0  0  0  0  0  0  0
    1.8149   -5.0157    0.0971 N   0  0  0  0  0  0  0  0  0  0  0  0
    1.2590   -3.8254   -0.5296 C   0  0  0  0  0  0  0  0  0  0  0  0
    0.2246   -4.0905   -1.6229 C   0  0  0  0  0  0  0  0  0  0  0  0
   -0.3337   -2.7852   -2.1492 C   0  0  0  0  0  0  0  0  0  0  0  0
   -1.4600   -2.2006   -1.5480 C   0  0  0  0  0  0  0  0  0  0  0  0
   -1.9385   -0.9589   -1.9790 C   0  0  0  0  0  0  0  0  0  0  0  0
   -1.2943   -0.2856   -3.0140 C   0  0  0  0  0  0  0  0  0  0  0  0
   -0.1798   -0.8615   -3.6117 C   0  0  0  0  0  0  0  0  0  0  0  0
    0.3051   -2.0989   -3.1914 C   0  0  0  0  0  0  0  0  0  0  0  0
    0.4465   -0.2094   -4.6004 F   0  0  0  0  0  0  0  0  0  0  0  0
    2.4646   -6.6636    3.7485 C   0  0  0  0  0  0  0  0  0  0  0  0
    1.9996   -7.4601    4.5678 O   0  0  0  0  0  0  0  0  0  0  0  0
    2.6949   -5.3059    4.2427 C   0  0  0  0  0  0  0  0  0  0  0  0
    2.2442   -4.7155    5.4142 C   0  0  0  0  0  0  0  0  0  0  0  0
    2.7819   -3.4043    5.4558 C   0  0  0  0  0  0  0  0  0  0  0  0
    3.5483   -3.2829    4.3272 C   0  0  0  0  0  0  0  0  0  0  0  0
    3.5139   -4.4327    3.6064 O   0  0  0  0  0  0  0  0  0  0  0  0
   -0.4333  -13.8333    0.5529 H   0  0  0  0  0  0  0  0  0  0  0  0
   -0.9022  -12.1314    0.6718 H   0  0  0  0  0  0  0  0  0  0  0  0
   -0.1862  -12.9711    2.0605 H   0  0  0  0  0  0  0  0  0  0  0  0
    2.0406  -14.4759    0.6881 H   0  0  0  0  0  0  0  0  0  0  0  0
    2.3267  -13.4560    2.1060 H   0  0  0  0  0  0  0  0  0  0  0  0
    3.3014  -13.2365    0.6483 H   0  0  0  0  0  0  0  0  0  0  0  0
    0.9085  -13.5160   -1.3923 H   0  0  0  0  0  0  0  0  0  0  0  0
    2.2084  -12.3430   -1.5149 H   0  0  0  0  0  0  0  0  0  0  0  0
    0.5262  -11.7905   -1.4803 H   0  0  0  0  0  0  0  0  0  0  0  0
    0.3425  -10.9979    2.6991 H   0  0  0  0  0  0  0  0  0  0  0  0
    0.8889   -8.8381    3.4256 H   0  0  0  0  0  0  0  0  0  0  0  0
    3.9421   -8.6017    0.3577 H   0  0  0  0  0  0  0  0  0  0  0  0
    3.2265  -10.6992   -0.4870 H   0  0  0  0  0  0  0  0  0  0  0  0
    3.5400   -6.7260    0.5019 H   0  0  0  0  0  0  0  0  0  0  0  0
    5.1459   -6.6879    3.7978 H   0  0  0  0  0  0  0  0  0  0  0  0
    7.5876   -6.4950    3.9709 H   0  0  0  0  0  0  0  0  0  0  0  0
    8.9014   -5.8629    1.9444 H   0  0  0  0  0  0  0  0  0  0  0  0
    5.5061   -5.4461   -0.3231 H   0  0  0  0  0  0  0  0  0  0  0  0
    1.4188   -5.9319   -0.0806 H   0  0  0  0  0  0  0  0  0  0  0  0
    2.0916   -3.2456   -0.9500 H   0  0  0  0  0  0  0  0  0  0  0  0
    0.8240   -3.2194    0.2741 H   0  0  0  0  0  0  0  0  0  0  0  0
   -0.5904   -4.7137   -1.2354 H   0  0  0  0  0  0  0  0  0  0  0  0
    0.6739   -4.6604   -2.4466 H   0  0  0  0  0  0  0  0  0  0  0  0
   -1.9672   -2.7028   -0.7262 H   0  0  0  0  0  0  0  0  0  0  0  0
   -2.8072   -0.5141   -1.4992 H   0  0  0  0  0  0  0  0  0  0  0  0
   -1.6477    0.6832   -3.3531 H   0  0  0  0  0  0  0  0  0  0  0  0
    1.1890   -2.5037   -3.6758 H   0  0  0  0  0  0  0  0  0  0  0  0
    1.6057   -5.1875    6.1487 H   0  0  0  0  0  0  0  0  0  0  0  0
    2.6342   -2.6494    6.2151 H   0  0  0  0  0  0  0  0  0  0  0  0
    4.1541   -2.4881    3.8999 H   0  0  0  0  0  0  0  0  0  0  0  0
  1  2  1  0  0  0  0
  1 38  1  0  0  0  0
  1 39  1  0  0  0  0
  1 40  1  0  0  0  0
  2  3  1  0  0  0  0
  2  4  1  0  0  0  0
  2  5  1  0  0  0  0
  3 41  1  0  0  0  0
  3 42  1  0  0  0  0
  3 43  1  0  0  0  0
  4 44  1  0  0  0  0
  4 45  1  0  0  0  0
  4 46  1  0  0  0  0
  5  6  1  0  0  0  0
  5 10  2  0  0  0  0
  6  7  2  0  0  0  0
  6 47  1  0  0  0  0
  7  8  1  0  0  0  0
  7 48  1  0  0  0  0
  8  9  2  0  0  0  0
  8 11  1  0  0  0  0
  9 10  1  0  0  0  0
  9 49  1  0  0  0  0
 10 50  1  0  0  0  0
 11 31  1  0  0  0  0
 12 19  1  0  0  0  0
 12 13  1  0  0  0  0
 12 11  1  0  0  0  0
 12 51  1  6  0  0  0
 13 14  1  0  0  0  0
 13 18  2  0  0  0  0
 14 15  2  0  0  0  0
 14 52  1  0  0  0  0
 15 16  1  0  0  0  0
 15 53  1  0  0  0  0
 16 17  2  0  0  0  0
 16 54  1  0  0  0  0
 17 18  1  0  0  0  0
 18 55  1  0  0  0  0
 19 20  2  0  0  0  0
 19 21  1  0  0  0  0
 21 22  1  0  0  0  0
 21 56  1  0  0  0  0
 22 23  1  0  0  0  0
 22 57  1  0  0  0  0
 22 58  1  0  0  0  0
 23 24  1  0  0  0  0
 23 59  1  0  0  0  0
 23 60  1  0  0  0  0
 24 25  1  0  0  0  0
 24 29  2  0  0  0  0
 25 26  2  0  0  0  0
 25 61  1  0  0  0  0
 26 27  1  0  0  0  0
 26 62  1  0  0  0  0
 27 28  2  0  0  0  0
 27 63  1  0  0  0  0
 28 29  1  0  0  0  0
 28 30  1  0  0  0  0
 29 64  1  0  0  0  0
 31 32  2  0  0  0  0
 31 33  1  0  0  0  0
 33 34  2  0  0  0  0
 33 37  1  0  0  0  0
 34 35  1  0  0  0  0
 34 65  1  0  0  0  0
 35 36  2  0  0  0  0
 35 66  1  0  0  0  0
 36 37  1  0  0  0  0
 36 67  1  0  0  0  0
M  END
$$$$
