
 OpenBabel07202414133D

 52 55  0  0  1  0  0  0  0  0999 V2000
    0.8186   -0.0910   -0.1971 C   0  0  0  0  0  0  0  0  0  0  0  0
    2.3062    0.0475   -0.1893 N   0  0  0  0  0  0  0  0  0  0  0  0
    2.9416   -1.1115    0.4927 C   0  0  0  0  0  0  0  0  0  0  0  0
    4.4642   -1.1735    0.2166 C   0  0  3  0  0  0  0  0  0  0  0  0
    4.9730   -2.2984    1.1629 C   0  0  0  0  0  0  0  0  0  0  0  0
    4.7298   -1.5916   -1.2738 C   0  0  0  0  0  0  0  0  0  0  0  0
    5.3799   -2.6003   -1.5418 O   0  0  0  0  0  0  0  0  0  0  0  0
    4.2096   -0.7223   -2.2253 N   0  0  0  0  0  0  0  0  0  0  0  0
    4.2081   -0.8713   -3.6462 C   0  0  0  0  0  0  0  0  0  0  0  0
    4.7468   -1.9756   -4.2993 C   0  0  0  0  0  0  0  0  0  0  0  0
    4.4972   -2.2928   -5.5941 N   0  0  0  0  0  0  0  0  0  0  0  0
    3.8136   -1.3883   -6.3187 C   0  0  0  0  0  0  0  0  0  0  0  0
    3.4987   -0.1159   -5.8622 C   0  0  0  0  0  0  0  0  0  0  0  0
    3.1493    0.9119   -6.7643 C   0  0  0  0  0  0  0  0  0  0  0  0
    2.9796    2.2099   -6.2823 C   0  0  0  0  0  0  0  0  0  0  0  0
    3.0186    3.5877   -7.3960 S   0  0  0  0  0  0  0  0  0  0  0  0
    4.7290    4.0995   -7.3299 C   0  0  0  0  0  0  0  0  0  0  0  0
    2.7579    3.0967   -8.7258 O   0  0  0  0  0  0  0  0  0  0  0  0
    2.2122    4.6497   -6.8144 O   0  0  0  0  0  0  0  0  0  0  0  0
    2.9178    2.4498   -4.9158 C   0  0  0  0  0  0  0  0  0  0  0  0
    3.2368    1.4269   -4.0173 C   0  0  0  0  0  0  0  0  0  0  0  0
    3.6271    0.1384   -4.4694 C   0  0  0  0  0  0  0  0  0  0  0  0
    5.1924    0.1465    0.5350 C   0  0  0  0  0  0  0  0  0  0  0  0
    6.5874    0.1528    0.7582 C   0  0  0  0  0  0  0  0  0  0  0  0
    7.2749    1.3352    1.0555 C   0  0  0  0  0  0  0  0  0  0  0  0
    8.9596    1.2815    1.3979 Cl  0  0  0  0  0  0  0  0  0  0  0  0
    6.6055    2.5519    1.0932 C   0  0  0  0  0  0  0  0  0  0  0  0
    5.2337    2.5823    0.8649 C   0  0  0  0  0  0  0  0  0  0  0  0
    4.5357    1.3908    0.6126 C   0  0  0  0  0  0  0  0  0  0  0  0
    2.7755    1.5499    0.4796 S   0  0  0  0  0  0  0  0  0  0  0  0
    2.4975    2.5471   -0.5222 O   0  0  0  0  0  0  0  0  0  0  0  0
    2.2580    1.6229    1.8266 O   0  0  0  0  0  0  0  0  0  0  0  0
    0.5295   -1.0455   -0.6481 H   0  0  0  0  0  0  0  0  0  0  0  0
    0.3668    0.7081   -0.7923 H   0  0  0  0  0  0  0  0  0  0  0  0
    0.4173   -0.0614    0.8207 H   0  0  0  0  0  0  0  0  0  0  0  0
    2.4666   -2.0382    0.1443 H   0  0  0  0  0  0  0  0  0  0  0  0
    2.7402   -1.0427    1.5712 H   0  0  0  0  0  0  0  0  0  0  0  0
    4.3913   -3.2192    1.0320 H   0  0  0  0  0  0  0  0  0  0  0  0
    4.8818   -1.9962    2.2140 H   0  0  0  0  0  0  0  0  0  0  0  0
    6.0185   -2.5705    0.9865 H   0  0  0  0  0  0  0  0  0  0  0  0
    3.5934   -0.0009   -1.8688 H   0  0  0  0  0  0  0  0  0  0  0  0
    5.4100   -2.6810   -3.8087 H   0  0  0  0  0  0  0  0  0  0  0  0
    3.5363   -1.7220   -7.3195 H   0  0  0  0  0  0  0  0  0  0  0  0
    3.1406    0.7225   -7.8318 H   0  0  0  0  0  0  0  0  0  0  0  0
    5.3431    3.3064   -7.7573 H   0  0  0  0  0  0  0  0  0  0  0  0
    5.0063    4.2844   -6.2896 H   0  0  0  0  0  0  0  0  0  0  0  0
    4.8412    5.0152   -7.9090 H   0  0  0  0  0  0  0  0  0  0  0  0
    2.7117    3.4486   -4.5288 H   0  0  0  0  0  0  0  0  0  0  0  0
    3.2296    1.6741   -2.9663 H   0  0  0  0  0  0  0  0  0  0  0  0
    7.1633   -0.7709    0.7222 H   0  0  0  0  0  0  0  0  0  0  0  0
    7.1386    3.4727    1.3154 H   0  0  0  0  0  0  0  0  0  0  0  0
    4.7038    3.5327    0.9110 H   0  0  0  0  0  0  0  0  0  0  0  0
  1  2  1  0  0  0  0
  1 33  1  0  0  0  0
  1 34  1  0  0  0  0
  1 35  1  0  0  0  0
  2  3  1  0  0  0  0
  2 30  1  0  0  0  0
  3  4  1  0  0  0  0
  3 36  1  0  0  0  0
  3 37  1  0  0  0  0
  4  5  1  0  0  0  0
  4  6  1  0  0  0  0
  4 23  1  0  0  0  0
  5 38  1  0  0  0  0
  5 39  1  0  0  0  0
  5 40  1  0  0  0  0
  6  7  2  0  0  0  0
  6  8  1  0  0  0  0
  8  9  1  0  0  0  0
  8 41  1  0  0  0  0
  9 10  1  0  0  0  0
  9 22  2  0  0  0  0
 10 11  2  0  0  0  0
 10 42  1  0  0  0  0
 11 12  1  0  0  0  0
 12 13  2  0  0  0  0
 12 43  1  0  0  0  0
 13 14  1  0  0  0  0
 13 22  1  0  0  0  0
 14 15  2  0  0  0  0
 14 44  1  0  0  0  0
 15 16  1  0  0  0  0
 15 20  1  0  0  0  0
 16 17  1  0  0  0  0
 16 18  2  0  0  0  0
 16 19  2  0  0  0  0
 17 45  1  0  0  0  0
 17 46  1  0  0  0  0
 17 47  1  0  0  0  0
 20 21  2  0  0  0  0
 20 48  1  0  0  0  0
 21 22  1  0  0  0  0
 21 49  1  0  0  0  0
 23 24  1  0  0  0  0
 23 29  2  0  0  0  0
 24 25  2  0  0  0  0
 24 50  1  0  0  0  0
 25 26  1  0  0  0  0
 25 27  1  0  0  0  0
 27 28  2  0  0  0  0
 27 51  1  0  0  0  0
 28 29  1  0  0  0  0
 28 52  1  0  0  0  0
 29 30  1  0  0  0  0
 30 31  2  0  0  0  0
 30 32  2  0  0  0  0
M  END
$$$$
