
 OpenBabel07202414193D

 40 43  0  0  0  0  0  0  0  0999 V2000
    1.3860    0.2490   -0.0610 O   0  0  0  0  0  0  0  0  0  0  0  0
    2.6057    0.1076   -0.0601 C   0  0  0  0  0  0  0  0  0  0  0  0
    3.3199   -0.1453    1.1033 N   0  0  0  0  0  0  0  0  0  0  0  0
    2.5592   -0.4690    2.3053 C   0  0  0  0  0  0  0  0  0  0  0  0
    3.3995   -0.7501    3.5524 C   0  0  0  0  0  0  0  0  0  0  0  0
    4.2017   -2.0174    3.4792 C   0  0  0  0  0  0  0  0  0  0  0  0
    3.7186   -3.3194    3.3874 C   0  0  0  0  0  0  0  0  0  0  0  0
    4.7890   -4.1763    3.3391 N   0  0  0  0  0  0  0  0  0  0  0  0
    5.9551   -3.4673    3.4217 C   0  0  0  0  0  0  0  0  0  0  0  0
    7.1887   -4.0173    3.4257 N   0  0  0  0  0  0  0  0  0  0  0  0
    8.1662   -3.0805    3.5397 C   0  0  0  0  0  0  0  0  0  0  0  0
    7.9693   -1.7079    3.6375 C   0  0  0  0  0  0  0  0  0  0  0  0
    9.0245   -0.8830    3.7449 F   0  0  0  0  0  0  0  0  0  0  0  0
    6.6831   -1.1966    3.6260 C   0  0  0  0  0  0  0  0  0  0  0  0
    5.6283   -2.1173    3.5186 C   0  0  0  0  0  0  0  0  0  0  0  0
    3.3291    0.0452   -1.3548 C   0  0  0  0  0  0  0  0  0  0  0  0
    2.6038   -0.5147   -2.4088 C   0  0  0  0  0  0  0  0  0  0  0  0
    3.1144   -0.7980   -3.6277 N   0  0  0  0  0  0  0  0  0  0  0  0
    4.4296   -0.5566   -3.7847 C   0  0  0  0  0  0  0  0  0  0  0  0
    5.2435    0.0383   -2.8214 C   0  0  0  0  0  0  0  0  0  0  0  0
    6.5954    0.2761   -3.0927 C   0  0  0  0  0  0  0  0  0  0  0  0
    7.2932    1.2135   -2.3446 C   0  0  0  0  0  0  0  0  0  0  0  0
    6.6990    1.7706   -1.2177 C   0  0  0  0  0  0  0  0  0  0  0  0
    5.4377    1.3270   -0.7949 C   0  0  0  0  0  0  0  0  0  0  0  0
    4.6605    0.4609   -1.6049 C   0  0  0  0  0  0  0  0  0  0  0  0
    4.2624   -0.5101    1.0215 H   0  0  0  0  0  0  0  0  0  0  0  0
    1.9204   -1.3293    2.0744 H   0  0  0  0  0  0  0  0  0  0  0  0
    1.8949    0.3812    2.5060 H   0  0  0  0  0  0  0  0  0  0  0  0
    2.7313   -0.8233    4.4177 H   0  0  0  0  0  0  0  0  0  0  0  0
    4.0590    0.1060    3.7420 H   0  0  0  0  0  0  0  0  0  0  0  0
    2.7076   -3.7047    3.3451 H   0  0  0  0  0  0  0  0  0  0  0  0
    4.7495   -5.1880    3.2777 H   0  0  0  0  0  0  0  0  0  0  0  0
    9.1571   -3.4763    3.5560 H   0  0  0  0  0  0  0  0  0  0  0  0
    6.5208   -0.1249    3.7050 H   0  0  0  0  0  0  0  0  0  0  0  0
    1.5511   -0.7674   -2.2977 H   0  0  0  0  0  0  0  0  0  0  0  0
    4.8136   -0.7896   -4.7755 H   0  0  0  0  0  0  0  0  0  0  0  0
    7.0926   -0.2316   -3.9169 H   0  0  0  0  0  0  0  0  0  0  0  0
    8.2828    1.5289   -2.6661 H   0  0  0  0  0  0  0  0  0  0  0  0
    7.2216    2.5500   -0.6674 H   0  0  0  0  0  0  0  0  0  0  0  0
    5.0298    1.7464    0.1224 H   0  0  0  0  0  0  0  0  0  0  0  0
  1  2  2  0  0  0  0
  2  3  1  0  0  0  0
  2 16  1  0  0  0  0
  3  4  1  0  0  0  0
  3 26  1  0  0  0  0
  4  5  1  0  0  0  0
  4 27  1  0  0  0  0
  4 28  1  0  0  0  0
  5  6  1  0  0  0  0
  5 29  1  0  0  0  0
  5 30  1  0  0  0  0
  6  7  2  0  0  0  0
  6 15  1  0  0  0  0
  7  8  1  0  0  0  0
  7 31  1  0  0  0  0
  8  9  1  0  0  0  0
  8 32  1  0  0  0  0
  9 10  1  0  0  0  0
  9 15  2  0  0  0  0
 10 11  2  0  0  0  0
 11 12  1  0  0  0  0
 11 33  1  0  0  0  0
 12 13  1  0  0  0  0
 12 14  2  0  0  0  0
 14 15  1  0  0  0  0
 14 34  1  0  0  0  0
 16 17  1  0  0  0  0
 16 25  2  0  0  0  0
 17 18  2  0  0  0  0
 17 35  1  0  0  0  0
 18 19  1  0  0  0  0
 19 20  2  0  0  0  0
 19 36  1  0  0  0  0
 20 21  1  0  0  0  0
 20 25  1  0  0  0  0
 21 22  2  0  0  0  0
 21 37  1  0  0  0  0
 22 23  1  0  0  0  0
 22 38  1  0  0  0  0
 23 24  2  0  0  0  0
 23 39  1  0  0  0  0
 24 25  1  0  0  0  0
 24 40  1  0  0  0  0
M  END
$$$$
