
 OpenBabel07202414143D

 43 46  0  0  1  0  0  0  0  0999 V2000
    2.2122   -1.3579   -0.5509 C   0  0  0  0  0  0  0  0  0  0  0  0
    1.9771    0.0181   -0.2601 O   0  0  0  0  0  0  0  0  0  0  0  0
    2.6214    0.9817   -1.1208 C   0  0  3  0  0  0  0  0  0  0  0  0
    1.9397    1.0264   -2.5364 C   0  0  0  0  0  0  0  0  0  0  0  0
    2.5392    1.4025   -3.5381 O   0  0  0  0  0  0  0  0  0  0  0  0
    0.6103    0.6153   -2.5037 N   0  0  0  0  0  0  0  0  0  0  0  0
   -0.2586    0.3835   -3.6029 C   0  0  0  0  0  0  0  0  0  0  0  0
    0.1535    0.5231   -4.9301 C   0  0  0  0  0  0  0  0  0  0  0  0
   -0.5879    0.1702   -6.0063 N   0  0  0  0  0  0  0  0  0  0  0  0
   -1.8242   -0.3028   -5.7619 C   0  0  0  0  0  0  0  0  0  0  0  0
   -2.3939   -0.3999   -4.4923 C   0  0  0  0  0  0  0  0  0  0  0  0
   -3.7307   -0.8060   -4.3360 C   0  0  0  0  0  0  0  0  0  0  0  0
   -4.3156   -0.8533   -3.0738 C   0  0  0  0  0  0  0  0  0  0  0  0
   -3.5570   -0.5337   -1.9564 C   0  0  0  0  0  0  0  0  0  0  0  0
   -2.2173   -0.1526   -2.1001 C   0  0  0  0  0  0  0  0  0  0  0  0
   -1.5962   -0.0565   -3.3716 C   0  0  0  0  0  0  0  0  0  0  0  0
    4.1275    0.7150   -1.3064 C   0  0  0  0  0  0  0  0  0  0  0  0
    4.8116    0.8337    0.0418 C   0  0  0  0  0  0  0  0  0  0  0  0
    4.7751    2.1762    0.5178 O   0  0  0  0  0  0  0  0  0  0  0  0
    3.5625    2.8006    0.3989 C   0  0  0  0  0  0  0  0  0  0  0  0
    3.4669    4.0080    1.0977 C   0  0  0  0  0  0  0  0  0  0  0  0
    2.2905    4.7523    1.0588 C   0  0  0  0  0  0  0  0  0  0  0  0
    2.2361    6.2220    1.9640 Cl  0  0  0  0  0  0  0  0  0  0  0  0
    1.2079    4.2876    0.3100 C   0  0  0  0  0  0  0  0  0  0  0  0
   -0.2850    5.1531    0.2105 Cl  0  0  0  0  0  0  0  0  0  0  0  0
    1.3088    3.0798   -0.3969 C   0  0  0  0  0  0  0  0  0  0  0  0
    2.4923    2.3177   -0.3756 C   0  0  0  0  0  0  0  0  0  0  0  0
    1.6806   -1.9522    0.1975 H   0  0  0  0  0  0  0  0  0  0  0  0
    3.2702   -1.6192   -0.4718 H   0  0  0  0  0  0  0  0  0  0  0  0
    1.8297   -1.6271   -1.5383 H   0  0  0  0  0  0  0  0  0  0  0  0
    0.2796    0.3465   -1.5831 H   0  0  0  0  0  0  0  0  0  0  0  0
    1.1205    0.9265   -5.2024 H   0  0  0  0  0  0  0  0  0  0  0  0
   -2.3733   -0.6033   -6.6499 H   0  0  0  0  0  0  0  0  0  0  0  0
   -4.3379   -1.0564   -5.2046 H   0  0  0  0  0  0  0  0  0  0  0  0
   -5.3624   -1.1256   -2.9665 H   0  0  0  0  0  0  0  0  0  0  0  0
   -4.0103   -0.5635   -0.9683 H   0  0  0  0  0  0  0  0  0  0  0  0
   -1.6835    0.1044   -1.1900 H   0  0  0  0  0  0  0  0  0  0  0  0
    4.5651    1.4534   -1.9926 H   0  0  0  0  0  0  0  0  0  0  0  0
    4.3168   -0.2690   -1.7460 H   0  0  0  0  0  0  0  0  0  0  0  0
    5.8658    0.5523   -0.0524 H   0  0  0  0  0  0  0  0  0  0  0  0
    4.3741    0.1751    0.8015 H   0  0  0  0  0  0  0  0  0  0  0  0
    4.3174    4.3552    1.6800 H   0  0  0  0  0  0  0  0  0  0  0  0
    0.4452    2.7503   -0.9684 H   0  0  0  0  0  0  0  0  0  0  0  0
  1  2  1  0  0  0  0
  1 28  1  0  0  0  0
  1 29  1  0  0  0  0
  1 30  1  0  0  0  0
  2  3  1  0  0  0  0
  3  4  1  0  0  0  0
  3 17  1  0  0  0  0
  3 27  1  0  0  0  0
  4  5  2  0  0  0  0
  4  6  1  0  0  0  0
  6  7  1  0  0  0  0
  6 31  1  0  0  0  0
  7  8  1  0  0  0  0
  7 16  2  0  0  0  0
  8  9  2  0  0  0  0
  8 32  1  0  0  0  0
  9 10  1  0  0  0  0
 10 11  2  0  0  0  0
 10 33  1  0  0  0  0
 11 12  1  0  0  0  0
 11 16  1  0  0  0  0
 12 13  2  0  0  0  0
 12 34  1  0  0  0  0
 13 14  1  0  0  0  0
 13 35  1  0  0  0  0
 14 15  2  0  0  0  0
 14 36  1  0  0  0  0
 15 16  1  0  0  0  0
 15 37  1  0  0  0  0
 17 18  1  0  0  0  0
 17 38  1  0  0  0  0
 17 39  1  0  0  0  0
 18 19  1  0  0  0  0
 18 40  1  0  0  0  0
 18 41  1  0  0  0  0
 19 20  1  0  0  0  0
 20 21  1  0  0  0  0
 20 27  2  0  0  0  0
 21 22  2  0  0  0  0
 21 42  1  0  0  0  0
 22 23  1  0  0  0  0
 22 24  1  0  0  0  0
 24 25  1  0  0  0  0
 24 26  2  0  0  0  0
 26 27  1  0  0  0  0
 26 43  1  0  0  0  0
M  END
$$$$
