
 OpenBabel07202414133D

 36 37  0  0  1  0  0  0  0  0999 V2000
    0.8284    0.1331    0.0483 C   0  0  0  0  0  0  0  0  0  0  0  0
    2.3610    0.1020   -0.0011 C   0  0  3  0  0  0  0  0  0  0  0  0
    2.9256    1.0989   -1.0235 C   0  0  0  0  0  0  0  0  0  0  0  0
    2.6190    0.6723   -2.4525 C   0  0  0  0  0  0  0  0  0  0  0  0
    2.9331   -0.7166   -2.7144 N   0  0  0  0  0  0  0  0  0  0  0  0
    2.6604   -1.6917   -1.7823 C   0  0  0  0  0  0  0  0  0  0  0  0
    2.3353   -2.8255   -2.1345 O   0  0  0  0  0  0  0  0  0  0  0  0
    2.9167   -1.2979   -0.3194 C   0  0  3  0  0  0  0  0  0  0  0  0
    2.4403   -2.3027    0.6208 N   0  0  0  0  0  0  0  0  0  0  0  0
    3.0541   -2.4525    1.8409 C   0  0  0  0  0  0  0  0  0  0  0  0
    4.0298   -1.7737    2.1768 O   0  0  0  0  0  0  0  0  0  0  0  0
    2.4382   -3.4829    2.7694 C   0  0  0  0  0  0  0  0  0  0  0  0
    1.3899   -2.8976    3.6873 C   0  0  0  0  0  0  0  0  0  0  0  0
    1.7162   -1.8796    4.5955 C   0  0  0  0  0  0  0  0  0  0  0  0
    0.7314   -1.2999    5.4005 C   0  0  0  0  0  0  0  0  0  0  0  0
   -0.5902   -1.7357    5.3132 C   0  0  0  0  0  0  0  0  0  0  0  0
   -0.9165   -2.7672    4.4371 C   0  0  0  0  0  0  0  0  0  0  0  0
    0.0637   -3.3547    3.6351 C   0  0  0  0  0  0  0  0  0  0  0  0
   -2.5493   -3.2995    4.3172 Cl  0  0  0  0  0  0  0  0  0  0  0  0
    0.4729    1.1429    0.2784 H   0  0  0  0  0  0  0  0  0  0  0  0
    0.4478   -0.5317    0.8310 H   0  0  0  0  0  0  0  0  0  0  0  0
    0.3746   -0.1781   -0.8976 H   0  0  0  0  0  0  0  0  0  0  0  0
    2.7168    0.4063    0.9920 H   0  0  0  0  0  0  0  0  0  0  0  0
    4.0141    1.1587   -0.8932 H   0  0  0  0  0  0  0  0  0  0  0  0
    2.5298    2.1046   -0.8408 H   0  0  0  0  0  0  0  0  0  0  0  0
    3.1742    1.2861   -3.1687 H   0  0  0  0  0  0  0  0  0  0  0  0
    1.5519    0.7978   -2.6666 H   0  0  0  0  0  0  0  0  0  0  0  0
    2.8080   -1.0426   -3.6657 H   0  0  0  0  0  0  0  0  0  0  0  0
    4.0100   -1.2692   -0.2267 H   0  0  0  0  0  0  0  0  0  0  0  0
    1.7161   -2.9444    0.3134 H   0  0  0  0  0  0  0  0  0  0  0  0
    3.2465   -3.9313    3.3618 H   0  0  0  0  0  0  0  0  0  0  0  0
    2.0123   -4.2932    2.1681 H   0  0  0  0  0  0  0  0  0  0  0  0
    2.7409   -1.5147    4.6671 H   0  0  0  0  0  0  0  0  0  0  0  0
    0.9942   -0.4964    6.0846 H   0  0  0  0  0  0  0  0  0  0  0  0
   -1.3564   -1.2650    5.9222 H   0  0  0  0  0  0  0  0  0  0  0  0
   -0.2146   -4.1599    2.9588 H   0  0  0  0  0  0  0  0  0  0  0  0
  1  2  1  0  0  0  0
  1 20  1  0  0  0  0
  1 21  1  0  0  0  0
  1 22  1  0  0  0  0
  2  3  1  0  0  0  0
  2  8  1  0  0  0  0
  2 23  1  0  0  0  0
  3  4  1  0  0  0  0
  3 24  1  0  0  0  0
  3 25  1  0  0  0  0
  4  5  1  0  0  0  0
  4 26  1  0  0  0  0
  4 27  1  0  0  0  0
  5  6  1  0  0  0  0
  5 28  1  0  0  0  0
  6  7  2  0  0  0  0
  6  8  1  0  0  0  0
  8  9  1  0  0  0  0
  8 29  1  0  0  0  0
  9 10  1  0  0  0  0
  9 30  1  0  0  0  0
 10 11  2  0  0  0  0
 10 12  1  0  0  0  0
 12 13  1  0  0  0  0
 12 31  1  0  0  0  0
 12 32  1  0  0  0  0
 13 14  1  0  0  0  0
 13 18  2  0  0  0  0
 14 15  2  0  0  0  0
 14 33  1  0  0  0  0
 15 16  1  0  0  0  0
 15 34  1  0  0  0  0
 16 17  2  0  0  0  0
 16 35  1  0  0  0  0
 17 18  1  0  0  0  0
 17 19  1  0  0  0  0
 18 36  1  0  0  0  0
M  END
$$$$
