
 OpenBabel07202414143D

 43 46  0  0  1  0  0  0  0  0999 V2000
    0.9653    0.0453    0.1152 C   0  0  0  0  0  0  0  0  0  0  0  0
    2.3741   -0.0607   -0.2142 N   0  0  0  0  0  0  0  0  0  0  0  0
    3.0182   -1.3713   -0.2649 C   0  0  0  0  0  0  0  0  0  0  0  0
    3.6790   -1.6206   -1.6154 C   0  0  1  0  0  0  0  0  0  0  0  0
    2.6445   -2.0515   -2.6638 C   0  0  0  0  0  0  0  0  0  0  0  0
    2.7410   -3.1505   -3.1932 O   0  0  0  0  0  0  0  0  0  0  0  0
    1.6599   -1.1166   -2.9321 N   0  0  0  0  0  0  0  0  0  0  0  0
    0.6433   -1.2197   -3.9148 C   0  0  0  0  0  0  0  0  0  0  0  0
    0.3248   -2.4277   -4.5363 C   0  0  0  0  0  0  0  0  0  0  0  0
   -0.4587   -2.5392   -5.6309 N   0  0  0  0  0  0  0  0  0  0  0  0
   -1.0136   -1.4000   -6.0876 C   0  0  0  0  0  0  0  0  0  0  0  0
   -0.9314   -0.1676   -5.4421 C   0  0  0  0  0  0  0  0  0  0  0  0
   -1.6896    0.9318   -5.8843 C   0  0  0  0  0  0  0  0  0  0  0  0
   -1.6053    2.1615   -5.2378 C   0  0  0  0  0  0  0  0  0  0  0  0
   -0.7299    2.3160   -4.1726 C   0  0  0  0  0  0  0  0  0  0  0  0
    0.0336    1.2309   -3.7300 C   0  0  0  0  0  0  0  0  0  0  0  0
   -0.0657   -0.0533   -4.3298 C   0  0  0  0  0  0  0  0  0  0  0  0
    4.5105   -0.4139   -2.0206 C   0  0  0  0  0  0  0  0  0  0  0  0
    5.5536   -0.5583   -2.9483 C   0  0  0  0  0  0  0  0  0  0  0  0
    6.3051    0.5526   -3.3474 C   0  0  0  0  0  0  0  0  0  0  0  0
    7.3656    0.3948   -4.3156 C   0  0  0  0  0  0  0  0  0  0  0  0
    8.2246    0.2730   -5.0895 N   0  0  0  0  0  0  0  0  0  0  0  0
    6.0239    1.8151   -2.8332 C   0  0  0  0  0  0  0  0  0  0  0  0
    4.9927    1.9712   -1.8956 C   0  0  0  0  0  0  0  0  0  0  0  0
    4.2398    0.8627   -1.4843 C   0  0  0  0  0  0  0  0  0  0  0  0
    3.0603    1.0832   -0.5980 C   0  0  0  0  0  0  0  0  0  0  0  0
    2.6621    2.2187   -0.3700 O   0  0  0  0  0  0  0  0  0  0  0  0
    0.5543   -0.9205    0.4147 H   0  0  0  0  0  0  0  0  0  0  0  0
    0.4414    0.3877   -0.7827 H   0  0  0  0  0  0  0  0  0  0  0  0
    0.8158    0.7911    0.8977 H   0  0  0  0  0  0  0  0  0  0  0  0
    2.3036   -2.1611   -0.0098 H   0  0  0  0  0  0  0  0  0  0  0  0
    3.7922   -1.3638    0.5141 H   0  0  0  0  0  0  0  0  0  0  0  0
    4.3617   -2.4729   -1.4871 H   0  0  0  0  0  0  0  0  0  0  0  0
    1.7948   -0.2043   -2.5237 H   0  0  0  0  0  0  0  0  0  0  0  0
    0.6911   -3.3814   -4.1692 H   0  0  0  0  0  0  0  0  0  0  0  0
   -1.5490   -1.5102   -7.0275 H   0  0  0  0  0  0  0  0  0  0  0  0
   -2.3772    0.8253   -6.7215 H   0  0  0  0  0  0  0  0  0  0  0  0
   -2.2202    2.9957   -5.5657 H   0  0  0  0  0  0  0  0  0  0  0  0
   -0.6413    3.2793   -3.6752 H   0  0  0  0  0  0  0  0  0  0  0  0
    0.6920    1.4183   -2.8875 H   0  0  0  0  0  0  0  0  0  0  0  0
    5.7739   -1.5408   -3.3690 H   0  0  0  0  0  0  0  0  0  0  0  0
    6.5817    2.6922   -3.1533 H   0  0  0  0  0  0  0  0  0  0  0  0
    4.7636    2.9637   -1.5070 H   0  0  0  0  0  0  0  0  0  0  0  0
  1  2  1  0  0  0  0
  1 28  1  0  0  0  0
  1 29  1  0  0  0  0
  1 30  1  0  0  0  0
  2  3  1  0  0  0  0
  2 26  1  0  0  0  0
  3  4  1  0  0  0  0
  3 31  1  0  0  0  0
  3 32  1  0  0  0  0
  4  5  1  0  0  0  0
  4 18  1  0  0  0  0
  4 33  1  1  0  0  0
  5  6  2  0  0  0  0
  5  7  1  0  0  0  0
  7  8  1  0  0  0  0
  7 34  1  0  0  0  0
  8  9  1  0  0  0  0
  8 17  2  0  0  0  0
  9 10  2  0  0  0  0
  9 35  1  0  0  0  0
 10 11  1  0  0  0  0
 11 12  2  0  0  0  0
 11 36  1  0  0  0  0
 12 13  1  0  0  0  0
 12 17  1  0  0  0  0
 13 14  2  0  0  0  0
 13 37  1  0  0  0  0
 14 15  1  0  0  0  0
 14 38  1  0  0  0  0
 15 16  2  0  0  0  0
 15 39  1  0  0  0  0
 16 17  1  0  0  0  0
 16 40  1  0  0  0  0
 18 19  1  0  0  0  0
 18 25  2  0  0  0  0
 19 20  2  0  0  0  0
 19 41  1  0  0  0  0
 20 21  1  0  0  0  0
 20 23  1  0  0  0  0
 21 22  3  0  0  0  0
 23 24  2  0  0  0  0
 23 42  1  0  0  0  0
 24 25  1  0  0  0  0
 24 43  1  0  0  0  0
 25 26  1  0  0  0  0
 26 27  2  0  0  0  0
M  END
$$$$
