
 OpenBabel07202414123D

 65 67  0  0  1  0  0  0  0  0999 V2000
   -0.4955    7.6053   -6.2442 C   0  0  0  0  0  0  0  0  0  0  0  0
   -0.4913    6.1835   -6.8621 C   0  0  0  0  0  0  0  0  0  0  0  0
   -1.8588    5.5291   -6.5989 C   0  0  0  0  0  0  0  0  0  0  0  0
   -0.3255    6.3889   -8.3862 C   0  0  0  0  0  0  0  0  0  0  0  0
    0.6065    5.2874   -6.2610 C   0  0  0  0  0  0  0  0  0  0  0  0
    1.0639    5.4758   -4.9543 C   0  0  0  0  0  0  0  0  0  0  0  0
    2.1295    4.7291   -4.4225 C   0  0  0  0  0  0  0  0  0  0  0  0
    2.7801    3.7260   -5.1505 C   0  0  0  0  0  0  0  0  0  0  0  0
    2.2248    3.4459   -6.4111 C   0  0  0  0  0  0  0  0  0  0  0  0
    1.1761    4.2162   -6.9602 C   0  0  0  0  0  0  0  0  0  0  0  0
    3.9900    3.0514   -4.6543 N   0  0  0  0  0  0  0  0  0  0  0  0
    4.8890    2.4574   -5.7055 C   0  0  3  0  0  0  0  0  0  0  0  0
    6.3169    3.0184   -5.7120 C   0  0  0  0  0  0  0  0  0  0  0  0
    7.4414    2.2565   -6.0707 C   0  0  0  0  0  0  0  0  0  0  0  0
    8.7244    2.7961   -5.9512 C   0  0  0  0  0  0  0  0  0  0  0  0
    8.8473    4.1041   -5.5155 C   0  0  0  0  0  0  0  0  0  0  0  0
    7.7886    4.8980   -5.2393 N   0  0  0  0  0  0  0  0  0  0  0  0
    6.5568    4.3508   -5.3633 C   0  0  0  0  0  0  0  0  0  0  0  0
    9.8892    2.0136   -6.2270 C   0  0  0  0  0  0  0  0  0  0  0  0
   10.8299    1.3728   -6.4285 N   0  0  0  0  0  0  0  0  0  0  0  0
    4.7739    0.9039   -5.8672 C   0  0  0  0  0  0  0  0  0  0  0  0
    5.0158    0.3776   -6.9585 O   0  0  0  0  0  0  0  0  0  0  0  0
    4.5331    0.1190   -4.7566 N   0  0  0  0  0  0  0  0  0  0  0  0
    4.4744   -1.3370   -4.8648 C   0  0  0  0  0  0  0  0  0  0  0  0
    4.1640   -2.0418   -3.5377 C   0  0  0  0  0  0  0  0  0  0  0  0
    4.1519   -3.5483   -3.6840 C   0  0  0  0  0  0  0  0  0  0  0  0
    2.9723   -4.2296   -4.0243 C   0  0  0  0  0  0  0  0  0  0  0  0
    2.9760   -5.6155   -4.2166 C   0  0  0  0  0  0  0  0  0  0  0  0
    4.1588   -6.3382   -4.0678 C   0  0  0  0  0  0  0  0  0  0  0  0
    5.3256   -5.6692   -3.7134 C   0  0  0  0  0  0  0  0  0  0  0  0
    5.3318   -4.2897   -3.5216 C   0  0  0  0  0  0  0  0  0  0  0  0
    6.4626   -6.3607   -3.5613 F   0  0  0  0  0  0  0  0  0  0  0  0
    4.2965    3.0739   -3.2788 C   0  0  0  0  0  0  0  0  0  0  0  0
    3.5851    3.5631   -2.4021 O   0  0  0  0  0  0  0  0  0  0  0  0
    5.5356    2.3876   -2.7980 C   0  0  0  0  0  0  0  0  0  0  0  0
    5.5575    1.8796   -1.5536 C   0  0  0  0  0  0  0  0  0  0  0  0
   -1.2505    8.2432   -6.7187 H   0  0  0  0  0  0  0  0  0  0  0  0
    0.4783    8.0938   -6.3720 H   0  0  0  0  0  0  0  0  0  0  0  0
   -0.7308    7.5980   -5.1749 H   0  0  0  0  0  0  0  0  0  0  0  0
   -2.6735    6.1333   -7.0149 H   0  0  0  0  0  0  0  0  0  0  0  0
   -2.0466    5.4139   -5.5251 H   0  0  0  0  0  0  0  0  0  0  0  0
   -1.9194    4.5335   -7.0534 H   0  0  0  0  0  0  0  0  0  0  0  0
   -1.1019    7.0587   -8.7774 H   0  0  0  0  0  0  0  0  0  0  0  0
   -0.4111    5.4540   -8.9485 H   0  0  0  0  0  0  0  0  0  0  0  0
    0.6459    6.8389   -8.6226 H   0  0  0  0  0  0  0  0  0  0  0  0
    0.6228    6.2272   -4.3043 H   0  0  0  0  0  0  0  0  0  0  0  0
    2.4366    5.0233   -3.4249 H   0  0  0  0  0  0  0  0  0  0  0  0
    2.5661    2.6118   -7.0193 H   0  0  0  0  0  0  0  0  0  0  0  0
    0.8214    3.9488   -7.9530 H   0  0  0  0  0  0  0  0  0  0  0  0
    4.5437    2.8260   -6.6787 H   0  0  0  0  0  0  0  0  0  0  0  0
    7.3349    1.2326   -6.4290 H   0  0  0  0  0  0  0  0  0  0  0  0
    9.8189    4.5693   -5.3660 H   0  0  0  0  0  0  0  0  0  0  0  0
    5.7456    5.0376   -5.1243 H   0  0  0  0  0  0  0  0  0  0  0  0
    4.4128    0.5341   -3.8443 H   0  0  0  0  0  0  0  0  0  0  0  0
    5.4390   -1.6771   -5.2611 H   0  0  0  0  0  0  0  0  0  0  0  0
    3.7135   -1.5844   -5.6151 H   0  0  0  0  0  0  0  0  0  0  0  0
    3.1957   -1.7031   -3.1471 H   0  0  0  0  0  0  0  0  0  0  0  0
    4.9032   -1.7572   -2.7779 H   0  0  0  0  0  0  0  0  0  0  0  0
    2.0367   -3.6844   -4.1479 H   0  0  0  0  0  0  0  0  0  0  0  0
    2.0566   -6.1317   -4.4874 H   0  0  0  0  0  0  0  0  0  0  0  0
    4.1789   -7.4119   -4.2252 H   0  0  0  0  0  0  0  0  0  0  0  0
    6.2665   -3.8087   -3.2502 H   0  0  0  0  0  0  0  0  0  0  0  0
    6.4261    2.3238   -3.3915 H   0  0  0  0  0  0  0  0  0  0  0  0
    4.6960    1.9532   -0.8964 H   0  0  0  0  0  0  0  0  0  0  0  0
    6.4491    1.4051   -1.1623 H   0  0  0  0  0  0  0  0  0  0  0  0
  1  2  1  0  0  0  0
  1 37  1  0  0  0  0
  1 38  1  0  0  0  0
  1 39  1  0  0  0  0
  2  3  1  0  0  0  0
  2  4  1  0  0  0  0
  2  5  1  0  0  0  0
  3 40  1  0  0  0  0
  3 41  1  0  0  0  0
  3 42  1  0  0  0  0
  4 43  1  0  0  0  0
  4 44  1  0  0  0  0
  4 45  1  0  0  0  0
  5  6  1  0  0  0  0
  5 10  2  0  0  0  0
  6  7  2  0  0  0  0
  6 46  1  0  0  0  0
  7  8  1  0  0  0  0
  7 47  1  0  0  0  0
  8  9  2  0  0  0  0
  8 11  1  0  0  0  0
  9 10  1  0  0  0  0
  9 48  1  0  0  0  0
 10 49  1  0  0  0  0
 11 12  1  0  0  0  0
 11 33  1  0  0  0  0
 12 13  1  0  0  0  0
 12 21  1  0  0  0  0
 12 50  1  0  0  0  0
 13 14  1  0  0  0  0
 13 18  2  0  0  0  0
 14 15  2  0  0  0  0
 14 51  1  0  0  0  0
 15 16  1  0  0  0  0
 15 19  1  0  0  0  0
 16 17  2  0  0  0  0
 16 52  1  0  0  0  0
 17 18  1  0  0  0  0
 18 53  1  0  0  0  0
 19 20  3  0  0  0  0
 21 22  2  0  0  0  0
 21 23  1  0  0  0  0
 23 24  1  0  0  0  0
 23 54  1  0  0  0  0
 24 25  1  0  0  0  0
 24 55  1  0  0  0  0
 24 56  1  0  0  0  0
 25 26  1  0  0  0  0
 25 57  1  0  0  0  0
 25 58  1  0  0  0  0
 26 27  1  0  0  0  0
 26 31  2  0  0  0  0
 27 28  2  0  0  0  0
 27 59  1  0  0  0  0
 28 29  1  0  0  0  0
 28 60  1  0  0  0  0
 29 30  2  0  0  0  0
 29 61  1  0  0  0  0
 30 31  1  0  0  0  0
 30 32  1  0  0  0  0
 31 62  1  0  0  0  0
 33 34  2  0  0  0  0
 33 35  1  0  0  0  0
 35 36  2  0  0  0  0
 35 63  1  0  0  0  0
 36 64  1  0  0  0  0
 36 65  1  0  0  0  0
M  END
$$$$
