
 OpenBabel07202414203D

 11 11  0  0  0  0  0  0  0  0999 V2000
   -0.6263    1.1659    0.0002 C   0  0  0  0  0  0  0  0  0  0  0  0
   -1.3549    0.0014   -0.0010 C   0  0  0  0  0  0  0  0  0  0  0  0
   -0.6281   -1.1644    0.0002 C   0  0  0  0  0  0  0  0  0  0  0  0
    0.7252   -1.2014    0.0002 N   0  0  0  0  0  0  0  0  0  0  0  0
    1.3472   -0.0010   -0.0003 C   0  0  0  0  0  0  0  0  0  0  0  0
    0.7270    1.2005    0.0002 N   0  0  0  0  0  0  0  0  0  0  0  0
    2.7902   -0.0019   -0.0054 C   0  0  0  0  0  0  0  0  0  0  0  0
    3.9553   -0.0027   -0.0101 N   0  0  0  0  0  0  0  0  0  0  0  0
   -2.6918    0.0021   -0.0040 F   0  0  0  0  0  0  0  0  0  0  0  0
   -1.1284    2.1280    0.0013 H   0  0  0  0  0  0  0  0  0  0  0  0
   -1.1314   -2.1261    0.0013 H   0  0  0  0  0  0  0  0  0  0  0  0
  1  2  1  0  0  0  0
  1  6  2  0  0  0  0
  1 10  1  0  0  0  0
  2  3  2  0  0  0  0
  2  9  1  0  0  0  0
  3  4  1  0  0  0  0
  3 11  1  0  0  0  0
  4  5  2  0  0  0  0
  5  6  1  0  0  0  0
  5  7  1  0  0  0  0
  7  8  3  0  0  0  0
M  END
$$$$
