
 OpenBabel07202414123D

 63 67  0  0  1  0  0  0  0  0999 V2000
    1.1229    0.0917   -0.2066 C   0  0  0  0  0  0  0  0  0  0  0  0
    2.6715    0.1600   -0.2827 C   0  0  3  0  0  0  0  0  0  0  0  0
    3.0645    0.8897   -1.6096 C   0  0  0  0  0  0  0  0  0  0  0  0
    2.2042    1.2470   -2.4093 O   0  0  0  0  0  0  0  0  0  0  0  0
    4.4263    1.0993   -1.7950 N   0  0  0  0  0  0  0  0  0  0  0  0
    5.0684    1.6515   -2.9452 C   0  0  0  0  0  0  0  0  0  0  0  0
    4.3631    2.1444   -4.0478 C   0  0  0  0  0  0  0  0  0  0  0  0
    4.9276    2.4820   -5.2333 N   0  0  0  0  0  0  0  0  0  0  0  0
    6.2661    2.3748   -5.3235 C   0  0  0  0  0  0  0  0  0  0  0  0
    7.0967    2.0511   -4.2534 C   0  0  0  0  0  0  0  0  0  0  0  0
    8.4998    2.0969   -4.3964 C   0  0  0  0  0  0  0  0  0  0  0  0
    9.3218    1.8011   -3.3085 C   0  0  0  0  0  0  0  0  0  0  0  0
   11.0911    1.8497   -3.4912 S   0  0  0  0  0  0  0  0  0  0  0  0
   11.5393    3.4910   -2.9836 C   0  0  0  0  0  0  0  0  0  0  0  0
   11.6459    0.9164   -2.5290 O   0  0  0  0  0  0  0  0  0  0  0  0
   11.3822    1.7226   -4.9042 O   0  0  0  0  0  0  0  0  0  0  0  0
    8.7648    1.4057   -2.0985 C   0  0  0  0  0  0  0  0  0  0  0  0
    7.3737    1.3476   -1.9602 C   0  0  0  0  0  0  0  0  0  0  0  0
    6.4927    1.6747   -3.0263 C   0  0  0  0  0  0  0  0  0  0  0  0
    3.2043   -1.3047   -0.3493 C   0  0  0  0  0  0  0  0  0  0  0  0
    2.8542   -2.0228    0.9180 N   0  0  0  0  0  0  0  0  0  0  0  0
    2.9480   -3.5146    0.8322 C   0  0  0  0  0  0  0  0  0  0  0  0
    1.9975   -4.1517   -0.1555 C   0  0  0  0  0  0  0  0  0  0  0  0
    2.3972   -4.8839   -1.0594 O   0  0  0  0  0  0  0  0  0  0  0  0
    0.6654   -3.8718    0.0753 N   0  0  0  0  0  0  0  0  0  0  0  0
   -0.3733   -4.4801   -0.6889 C   0  0  0  0  0  0  0  0  0  0  0  0
   -0.8464   -3.8491   -1.9686 C   0  0  0  0  0  0  0  0  0  0  0  0
   -1.7447   -3.8712   -0.7664 C   0  0  0  0  0  0  0  0  0  0  0  0
    3.7596   -1.4594    2.2473 S   0  0  0  0  0  0  0  0  0  0  0  0
    3.0912   -1.9062    3.4438 O   0  0  0  0  0  0  0  0  0  0  0  0
    5.1506   -1.7475    1.9784 O   0  0  0  0  0  0  0  0  0  0  0  0
    3.5906    0.2965    2.1362 C   0  0  0  0  0  0  0  0  0  0  0  0
    3.9460    1.0194    3.2866 C   0  0  0  0  0  0  0  0  0  0  0  0
    3.8657    2.4073    3.2867 C   0  0  0  0  0  0  0  0  0  0  0  0
    3.4232    3.0635    2.1417 C   0  0  0  0  0  0  0  0  0  0  0  0
    3.3165    4.7796    2.1389 Cl  0  0  0  0  0  0  0  0  0  0  0  0
    3.0584    2.3421    0.9987 C   0  0  0  0  0  0  0  0  0  0  0  0
    3.1452    0.9338    0.9630 C   0  0  0  0  0  0  0  0  0  0  0  0
    0.7108   -0.4781   -1.0484 H   0  0  0  0  0  0  0  0  0  0  0  0
    0.6721    1.0896   -0.2389 H   0  0  0  0  0  0  0  0  0  0  0  0
    0.7782   -0.3868    0.7178 H   0  0  0  0  0  0  0  0  0  0  0  0
    5.0433    0.7475   -1.0723 H   0  0  0  0  0  0  0  0  0  0  0  0
    3.2912    2.2982   -4.0404 H   0  0  0  0  0  0  0  0  0  0  0  0
    6.6662    2.5764   -6.3149 H   0  0  0  0  0  0  0  0  0  0  0  0
    8.9437    2.3758   -5.3506 H   0  0  0  0  0  0  0  0  0  0  0  0
   11.2676    3.6334   -1.9357 H   0  0  0  0  0  0  0  0  0  0  0  0
   11.0337    4.2181   -3.6206 H   0  0  0  0  0  0  0  0  0  0  0  0
   12.6224    3.5930   -3.0977 H   0  0  0  0  0  0  0  0  0  0  0  0
    9.3972    1.1330   -1.2549 H   0  0  0  0  0  0  0  0  0  0  0  0
    6.9947    1.0602   -0.9833 H   0  0  0  0  0  0  0  0  0  0  0  0
    4.2888   -1.3391   -0.5033 H   0  0  0  0  0  0  0  0  0  0  0  0
    2.7594   -1.8175   -1.2089 H   0  0  0  0  0  0  0  0  0  0  0  0
    2.7019   -3.9509    1.8080 H   0  0  0  0  0  0  0  0  0  0  0  0
    3.9705   -3.8143    0.5751 H   0  0  0  0  0  0  0  0  0  0  0  0
    0.4247   -3.2537    0.8430 H   0  0  0  0  0  0  0  0  0  0  0  0
   -0.3266   -5.5698   -0.6750 H   0  0  0  0  0  0  0  0  0  0  0  0
   -1.0748   -4.5101   -2.7961 H   0  0  0  0  0  0  0  0  0  0  0  0
   -0.4078   -2.9039   -2.2659 H   0  0  0  0  0  0  0  0  0  0  0  0
   -2.5959   -4.5427   -0.7863 H   0  0  0  0  0  0  0  0  0  0  0  0
   -1.9312   -2.9327   -0.2584 H   0  0  0  0  0  0  0  0  0  0  0  0
    4.2847    0.5008    4.1823 H   0  0  0  0  0  0  0  0  0  0  0  0
    4.1420    2.9653    4.1772 H   0  0  0  0  0  0  0  0  0  0  0  0
    2.6899    2.8970    0.1360 H   0  0  0  0  0  0  0  0  0  0  0  0
  1  2  1  0  0  0  0
  1 39  1  0  0  0  0
  1 40  1  0  0  0  0
  1 41  1  0  0  0  0
  2  3  1  0  0  0  0
  2 20  1  0  0  0  0
  2 38  1  0  0  0  0
  3  4  2  0  0  0  0
  3  5  1  0  0  0  0
  5  6  1  0  0  0  0
  5 42  1  0  0  0  0
  6  7  1  0  0  0  0
  6 19  2  0  0  0  0
  7  8  2  0  0  0  0
  7 43  1  0  0  0  0
  8  9  1  0  0  0  0
  9 10  2  0  0  0  0
  9 44  1  0  0  0  0
 10 11  1  0  0  0  0
 10 19  1  0  0  0  0
 11 12  2  0  0  0  0
 11 45  1  0  0  0  0
 12 13  1  0  0  0  0
 12 17  1  0  0  0  0
 13 14  1  0  0  0  0
 13 15  2  0  0  0  0
 13 16  2  0  0  0  0
 14 46  1  0  0  0  0
 14 47  1  0  0  0  0
 14 48  1  0  0  0  0
 17 18  2  0  0  0  0
 17 49  1  0  0  0  0
 18 19  1  0  0  0  0
 18 50  1  0  0  0  0
 20 21  1  0  0  0  0
 20 51  1  0  0  0  0
 20 52  1  0  0  0  0
 21 22  1  0  0  0  0
 21 29  1  0  0  0  0
 22 23  1  0  0  0  0
 22 53  1  0  0  0  0
 22 54  1  0  0  0  0
 23 24  2  0  0  0  0
 23 25  1  0  0  0  0
 25 26  1  0  0  0  0
 25 55  1  0  0  0  0
 26 27  1  0  0  0  0
 26 28  1  0  0  0  0
 26 56  1  0  0  0  0
 27 28  1  0  0  0  0
 27 57  1  0  0  0  0
 27 58  1  0  0  0  0
 28 59  1  0  0  0  0
 28 60  1  0  0  0  0
 29 30  2  0  0  0  0
 29 31  2  0  0  0  0
 29 32  1  0  0  0  0
 32 33  1  0  0  0  0
 32 38  2  0  0  0  0
 33 34  2  0  0  0  0
 33 61  1  0  0  0  0
 34 35  1  0  0  0  0
 34 62  1  0  0  0  0
 35 36  1  0  0  0  0
 35 37  2  0  0  0  0
 37 38  1  0  0  0  0
 37 63  1  0  0  0  0
M  END
$$$$
