
 OpenBabel07202414213D

 38 41  0  0  0  0  0  0  0  0999 V2000
    1.9483   -0.9118   -0.2782 C   0  0  0  0  0  0  0  0  0  0  0  0
    2.2388   -0.9000    1.0928 C   0  0  0  0  0  0  0  0  0  0  0  0
    1.2227   -0.9740    2.0559 C   0  0  0  0  0  0  0  0  0  0  0  0
   -0.0720   -1.0593    1.5598 C   0  0  0  0  0  0  0  0  0  0  0  0
   -0.3993   -1.0758    0.2146 C   0  0  0  0  0  0  0  0  0  0  0  0
    0.6252   -0.9993   -0.7374 C   0  0  0  0  0  0  0  0  0  0  0  0
   -1.7585   -1.1750    0.0675 N   0  0  0  0  0  0  0  0  0  0  0  0
   -2.2129   -1.2122    1.3066 C   0  0  0  0  0  0  0  0  0  0  0  0
   -1.2351   -1.1456    2.2695 O   0  0  0  0  0  0  0  0  0  0  0  0
   -3.9039   -1.3593    1.7051 S   0  0  0  0  0  0  0  0  0  0  0  0
   -4.6030   -1.3911    0.0285 C   0  0  0  0  0  0  0  0  0  0  0  0
   -6.1007   -1.4412    0.0506 C   0  0  0  0  0  0  0  0  0  0  0  0
   -6.8837   -0.3770    0.0315 N   0  0  0  0  0  0  0  0  0  0  0  0
   -8.1689   -0.8431    0.0405 C   0  0  0  0  0  0  0  0  0  0  0  0
   -9.3747   -0.1247    0.0510 C   0  0  0  0  0  0  0  0  0  0  0  0
  -10.5836   -0.8313    0.0580 C   0  0  0  0  0  0  0  0  0  0  0  0
  -10.5836   -2.2257    0.0499 C   0  0  0  0  0  0  0  0  0  0  0  0
   -9.3918   -2.9623    0.0362 C   0  0  0  0  0  0  0  0  0  0  0  0
   -8.1929   -2.2338    0.0363 C   0  0  0  0  0  0  0  0  0  0  0  0
   -6.8611   -2.5965    0.0408 N   0  0  0  0  0  0  0  0  0  0  0  0
   -6.3718   -3.9645    0.0842 C   0  0  0  0  0  0  0  0  0  0  0  0
   -6.2678   -4.6104   -1.2946 C   0  0  0  0  0  0  0  0  0  0  0  0
   -5.2534   -3.9987   -2.0839 O   0  0  0  0  0  0  0  0  0  0  0  0
  -12.0873   -3.0685    0.0609 Cl  0  0  0  0  0  0  0  0  0  0  0  0
    2.7588   -0.8544   -0.9993 H   0  0  0  0  0  0  0  0  0  0  0  0
    3.2764   -0.8340    1.4161 H   0  0  0  0  0  0  0  0  0  0  0  0
    1.4302   -0.9636    3.1197 H   0  0  0  0  0  0  0  0  0  0  0  0
    0.3961   -1.0094   -1.7972 H   0  0  0  0  0  0  0  0  0  0  0  0
   -4.1905   -2.2392   -0.5233 H   0  0  0  0  0  0  0  0  0  0  0  0
   -4.3014   -0.4785   -0.4983 H   0  0  0  0  0  0  0  0  0  0  0  0
   -9.3587    0.9600    0.0594 H   0  0  0  0  0  0  0  0  0  0  0  0
  -11.5209   -0.2806    0.0721 H   0  0  0  0  0  0  0  0  0  0  0  0
   -9.4057   -4.0462    0.0331 H   0  0  0  0  0  0  0  0  0  0  0  0
   -7.0629   -4.5371    0.7128 H   0  0  0  0  0  0  0  0  0  0  0  0
   -5.4010   -3.9601    0.5877 H   0  0  0  0  0  0  0  0  0  0  0  0
   -7.2134   -4.5769   -1.8455 H   0  0  0  0  0  0  0  0  0  0  0  0
   -5.9874   -5.6622   -1.1756 H   0  0  0  0  0  0  0  0  0  0  0  0
   -5.6547   -3.2381   -2.5433 H   0  0  0  0  0  0  0  0  0  0  0  0
  1  2  1  0  0  0  0
  1  6  2  0  0  0  0
  1 25  1  0  0  0  0
  2  3  2  0  0  0  0
  2 26  1  0  0  0  0
  3  4  1  0  0  0  0
  3 27  1  0  0  0  0
  4  5  2  0  0  0  0
  4  9  1  0  0  0  0
  5  6  1  0  0  0  0
  5  7  1  0  0  0  0
  6 28  1  0  0  0  0
  7  8  2  0  0  0  0
  8  9  1  0  0  0  0
  8 10  1  0  0  0  0
 10 11  1  0  0  0  0
 11 12  1  0  0  0  0
 11 29  1  0  0  0  0
 11 30  1  0  0  0  0
 12 13  2  0  0  0  0
 12 20  1  0  0  0  0
 13 14  1  0  0  0  0
 14 15  1  0  0  0  0
 14 19  2  0  0  0  0
 15 16  2  0  0  0  0
 15 31  1  0  0  0  0
 16 17  1  0  0  0  0
 16 32  1  0  0  0  0
 17 18  2  0  0  0  0
 17 24  1  0  0  0  0
 18 19  1  0  0  0  0
 18 33  1  0  0  0  0
 19 20  1  0  0  0  0
 20 21  1  0  0  0  0
 21 22  1  0  0  0  0
 21 34  1  0  0  0  0
 21 35  1  0  0  0  0
 22 23  1  0  0  0  0
 22 36  1  0  0  0  0
 22 37  1  0  0  0  0
 23 38  1  0  0  0  0
M  END
$$$$
