
 OpenBabel07202414113D

 53 56  0  0  0  0  0  0  0  0999 V2000
    1.7717    0.2642   -3.1674 C   0  0  0  0  0  0  0  0  0  0  0  0
    3.1894    0.6956   -2.8965 C   0  0  0  0  0  0  0  0  0  0  0  0
    3.9834    0.8515   -3.8190 O   0  0  0  0  0  0  0  0  0  0  0  0
    3.4685    0.8644   -1.5569 N   0  0  0  0  0  0  0  0  0  0  0  0
    4.7373    1.1912   -1.0764 C   0  0  0  0  0  0  0  0  0  0  0  0
    5.6015    2.0489   -1.7468 C   0  0  0  0  0  0  0  0  0  0  0  0
    6.9066    2.2054   -1.2932 C   0  0  0  0  0  0  0  0  0  0  0  0
    7.3159    1.4902   -0.1733 C   0  0  0  0  0  0  0  0  0  0  0  0
    6.3624    0.7285    0.4979 C   0  0  0  0  0  0  0  0  0  0  0  0
    5.0700    0.5938    0.0942 N   0  0  0  0  0  0  0  0  0  0  0  0
    8.6972    1.3459    0.1143 N   0  0  0  0  0  0  0  0  0  0  0  0
    9.3962    2.2435    1.0204 C   0  0  0  0  0  0  0  0  0  0  0  0
    8.5583    3.2665    1.7265 C   0  0  0  0  0  0  0  0  0  0  0  0
    8.4304    4.5573    1.1850 C   0  0  0  0  0  0  0  0  0  0  0  0
    7.6019    5.4958    1.7930 C   0  0  0  0  0  0  0  0  0  0  0  0
    6.8957    5.1504    2.9449 C   0  0  0  0  0  0  0  0  0  0  0  0
    7.0353    3.8775    3.4935 C   0  0  0  0  0  0  0  0  0  0  0  0
    7.8698    2.9363    2.8994 C   0  0  0  0  0  0  0  0  0  0  0  0
    6.1590    3.4488    4.9133 Cl  0  0  0  0  0  0  0  0  0  0  0  0
    9.5135    0.5015   -0.6413 C   0  0  0  0  0  0  0  0  0  0  0  0
   10.7396    0.4968   -0.5112 O   0  0  0  0  0  0  0  0  0  0  0  0
    8.8513   -0.4338   -1.6203 C   0  0  0  0  0  0  0  0  0  0  0  0
    8.8159    0.0122   -3.0674 C   0  0  0  0  0  0  0  0  0  0  0  0
    9.7780    0.8684   -3.5999 C   0  0  0  0  0  0  0  0  0  0  0  0
   10.0012    1.0266   -4.9215 N   0  0  0  0  0  0  0  0  0  0  0  0
    9.3344    0.1858   -5.7455 C   0  0  0  0  0  0  0  0  0  0  0  0
    8.3925   -0.7538   -5.3203 C   0  0  0  0  0  0  0  0  0  0  0  0
    8.0176   -0.7227   -3.9693 C   0  0  0  0  0  0  0  0  0  0  0  0
    6.9361   -1.5218   -3.5550 C   0  0  0  0  0  0  0  0  0  0  0  0
    6.4766   -2.5611   -4.3506 C   0  0  0  0  0  0  0  0  0  0  0  0
    6.9964   -2.7232   -5.6273 C   0  0  0  0  0  0  0  0  0  0  0  0
    7.8772   -1.7698   -6.1460 C   0  0  0  0  0  0  0  0  0  0  0  0
    1.7257   -0.2273   -4.1451 H   0  0  0  0  0  0  0  0  0  0  0  0
    1.1215    1.1420   -3.1779 H   0  0  0  0  0  0  0  0  0  0  0  0
    1.4245   -0.4493   -2.4155 H   0  0  0  0  0  0  0  0  0  0  0  0
    2.8971    0.3789   -0.8815 H   0  0  0  0  0  0  0  0  0  0  0  0
    5.2798    2.5690   -2.6496 H   0  0  0  0  0  0  0  0  0  0  0  0
    7.5958    2.8321   -1.8488 H   0  0  0  0  0  0  0  0  0  0  0  0
    6.6263    0.1276    1.3618 H   0  0  0  0  0  0  0  0  0  0  0  0
   10.1910    2.7476    0.4528 H   0  0  0  0  0  0  0  0  0  0  0  0
    9.9211    1.6219    1.7604 H   0  0  0  0  0  0  0  0  0  0  0  0
    8.9697    4.8281    0.2789 H   0  0  0  0  0  0  0  0  0  0  0  0
    7.4960    6.4887    1.3684 H   0  0  0  0  0  0  0  0  0  0  0  0
    6.2343    5.8753    3.4085 H   0  0  0  0  0  0  0  0  0  0  0  0
    7.9722    1.9436    3.3315 H   0  0  0  0  0  0  0  0  0  0  0  0
    7.8656   -0.7123   -1.2469 H   0  0  0  0  0  0  0  0  0  0  0  0
    9.4292   -1.3661   -1.5902 H   0  0  0  0  0  0  0  0  0  0  0  0
   10.4664    1.4271   -2.9702 H   0  0  0  0  0  0  0  0  0  0  0  0
    9.6160    0.2678   -6.7917 H   0  0  0  0  0  0  0  0  0  0  0  0
    6.4521   -1.3553   -2.5958 H   0  0  0  0  0  0  0  0  0  0  0  0
    5.7391   -3.2519   -3.9529 H   0  0  0  0  0  0  0  0  0  0  0  0
    6.7020   -3.5834   -6.2216 H   0  0  0  0  0  0  0  0  0  0  0  0
    8.2211   -1.8719   -7.1718 H   0  0  0  0  0  0  0  0  0  0  0  0
  1  2  1  0  0  0  0
  1 33  1  0  0  0  0
  1 34  1  0  0  0  0
  1 35  1  0  0  0  0
  2  3  2  0  0  0  0
  2  4  1  0  0  0  0
  4  5  1  0  0  0  0
  4 36  1  0  0  0  0
  5  6  1  0  0  0  0
  5 10  2  0  0  0  0
  6  7  2  0  0  0  0
  6 37  1  0  0  0  0
  7  8  1  0  0  0  0
  7 38  1  0  0  0  0
  8  9  2  0  0  0  0
  8 11  1  0  0  0  0
  9 10  1  0  0  0  0
  9 39  1  0  0  0  0
 11 12  1  0  0  0  0
 11 20  1  0  0  0  0
 12 13  1  0  0  0  0
 12 40  1  0  0  0  0
 12 41  1  0  0  0  0
 13 14  1  0  0  0  0
 13 18  2  0  0  0  0
 14 15  2  0  0  0  0
 14 42  1  0  0  0  0
 15 16  1  0  0  0  0
 15 43  1  0  0  0  0
 16 17  2  0  0  0  0
 16 44  1  0  0  0  0
 17 18  1  0  0  0  0
 17 19  1  0  0  0  0
 18 45  1  0  0  0  0
 20 21  2  0  0  0  0
 20 22  1  0  0  0  0
 22 23  1  0  0  0  0
 22 46  1  0  0  0  0
 22 47  1  0  0  0  0
 23 24  1  0  0  0  0
 23 28  2  0  0  0  0
 24 25  2  0  0  0  0
 24 48  1  0  0  0  0
 25 26  1  0  0  0  0
 26 27  2  0  0  0  0
 26 49  1  0  0  0  0
 27 28  1  0  0  0  0
 27 32  1  0  0  0  0
 28 29  1  0  0  0  0
 29 30  2  0  0  0  0
 29 50  1  0  0  0  0
 30 31  1  0  0  0  0
 30 51  1  0  0  0  0
 31 32  2  0  0  0  0
 31 52  1  0  0  0  0
 32 53  1  0  0  0  0
M  END
$$$$
