
 OpenBabel07202414203D

 39 41  0  0  1  0  0  0  0  0999 V2000
    0.3377   -1.3604    0.7077 C   0  0  0  0  0  0  0  0  0  0  0  0
    1.0487   -0.1605    0.6092 C   0  0  0  0  0  0  0  0  0  0  0  0
    0.4221    1.0090    0.1784 C   0  0  0  0  0  0  0  0  0  0  0  0
   -0.9508    0.9571   -0.0924 C   0  0  0  0  0  0  0  0  0  0  0  0
   -1.6699   -0.2395   -0.0029 C   0  0  0  0  0  0  0  0  0  0  0  0
   -1.0235   -1.4198    0.3852 C   0  0  0  0  0  0  0  0  0  0  0  0
   -1.7349   -2.6935    0.4377 C   0  0  0  0  0  0  0  0  0  0  0  0
   -3.0725   -2.8133    0.1292 N   0  0  0  0  0  0  0  0  0  0  0  0
   -3.3050   -4.0978    0.2589 C   0  0  0  0  0  0  0  0  0  0  0  0
   -2.1636   -4.7286    0.6303 N   0  0  0  0  0  0  0  0  0  0  0  0
   -1.1510   -3.8615    0.7600 N   0  0  0  0  0  0  0  0  0  0  0  0
   -1.5899    2.0711   -0.4841 F   0  0  0  0  0  0  0  0  0  0  0  0
    1.1161    2.2416    0.0238 N   0  0  0  0  0  0  0  0  0  0  0  0
    2.4890    2.3422   -0.1261 C   0  0  0  0  0  0  0  0  0  0  0  0
    3.2363    1.3711   -0.2789 O   0  0  0  0  0  0  0  0  0  0  0  0
    3.0997    3.7653   -0.0567 C   0  0  3  0  0  0  0  0  0  0  0  0
    2.6420    4.6823   -1.1901 C   0  0  0  0  0  0  0  0  0  0  0  0
    3.0163    6.1538   -0.9735 C   0  0  0  0  0  0  0  0  0  0  0  0
    4.5167    6.4459   -0.9154 C   0  0  0  0  0  0  0  0  0  0  0  0
    5.2117    5.8532    0.3035 C   0  0  0  0  0  0  0  0  0  0  0  0
    5.5626    4.4053    0.0980 C   0  0  0  0  0  0  0  0  0  0  0  0
    6.7235    4.0045    0.1142 O   0  0  0  0  0  0  0  0  0  0  0  0
    4.5447    3.5374   -0.1083 N   0  0  0  0  0  0  0  0  0  0  0  0
    0.8677   -2.2557    1.0304 H   0  0  0  0  0  0  0  0  0  0  0  0
    2.0980   -0.1800    0.8891 H   0  0  0  0  0  0  0  0  0  0  0  0
   -2.7276   -0.2448   -0.2536 H   0  0  0  0  0  0  0  0  0  0  0  0
   -4.2427   -4.6095    0.0985 H   0  0  0  0  0  0  0  0  0  0  0  0
   -1.9994   -5.7140    0.8036 H   0  0  0  0  0  0  0  0  0  0  0  0
    0.5364    3.0541   -0.1582 H   0  0  0  0  0  0  0  0  0  0  0  0
    2.8575    4.1940    0.9229 H   0  0  0  0  0  0  0  0  0  0  0  0
    1.5519    4.6349   -1.2952 H   0  0  0  0  0  0  0  0  0  0  0  0
    3.0559    4.3379   -2.1466 H   0  0  0  0  0  0  0  0  0  0  0  0
    2.5374    6.5234   -0.0584 H   0  0  0  0  0  0  0  0  0  0  0  0
    2.5922    6.7377   -1.8002 H   0  0  0  0  0  0  0  0  0  0  0  0
    4.6441    7.5350   -0.8791 H   0  0  0  0  0  0  0  0  0  0  0  0
    4.9984    6.1028   -1.8394 H   0  0  0  0  0  0  0  0  0  0  0  0
    4.6161    5.9610    1.2156 H   0  0  0  0  0  0  0  0  0  0  0  0
    6.1549    6.3879    0.4715 H   0  0  0  0  0  0  0  0  0  0  0  0
    4.8383    2.5673   -0.2289 H   0  0  0  0  0  0  0  0  0  0  0  0
  1  2  1  0  0  0  0
  1  6  2  0  0  0  0
  1 24  1  0  0  0  0
  2  3  2  0  0  0  0
  2 25  1  0  0  0  0
  3  4  1  0  0  0  0
  3 13  1  0  0  0  0
  4  5  2  0  0  0  0
  4 12  1  0  0  0  0
  5  6  1  0  0  0  0
  5 26  1  0  0  0  0
  6  7  1  0  0  0  0
  7  8  1  0  0  0  0
  7 11  2  0  0  0  0
  8  9  2  0  0  0  0
  9 10  1  0  0  0  0
  9 27  1  0  0  0  0
 10 11  1  0  0  0  0
 10 28  1  0  0  0  0
 13 14  1  0  0  0  0
 13 29  1  0  0  0  0
 14 15  2  0  0  0  0
 14 16  1  0  0  0  0
 16 17  1  0  0  0  0
 16 23  1  0  0  0  0
 16 30  1  0  0  0  0
 17 18  1  0  0  0  0
 17 31  1  0  0  0  0
 17 32  1  0  0  0  0
 18 19  1  0  0  0  0
 18 33  1  0  0  0  0
 18 34  1  0  0  0  0
 19 20  1  0  0  0  0
 19 35  1  0  0  0  0
 19 36  1  0  0  0  0
 20 21  1  0  0  0  0
 20 37  1  0  0  0  0
 20 38  1  0  0  0  0
 21 22  2  0  0  0  0
 21 23  1  0  0  0  0
 23 39  1  0  0  0  0
M  END
$$$$
