
 OpenBabel07202414153D

 48 51  0  0  0  0  0  0  0  0999 V2000
    1.6056   -0.6686    0.7167 C   0  0  0  0  0  0  0  0  0  0  0  0
    2.7492    0.0142    0.2164 O   0  0  0  0  0  0  0  0  0  0  0  0
    3.3179   -0.5045   -0.9153 C   0  0  0  0  0  0  0  0  0  0  0  0
    2.8908   -1.6377   -1.5968 C   0  0  0  0  0  0  0  0  0  0  0  0
    3.5675   -2.0599   -2.7452 C   0  0  0  0  0  0  0  0  0  0  0  0
    4.6780   -1.3671   -3.2533 C   0  0  0  0  0  0  0  0  0  0  0  0
    5.0839   -0.2251   -2.5567 C   0  0  0  0  0  0  0  0  0  0  0  0
    4.4175    0.1988   -1.3992 C   0  0  0  0  0  0  0  0  0  0  0  0
    5.2894   -1.7855   -4.4131 N   0  0  0  0  0  0  0  0  0  0  0  0
    5.9449   -0.8547   -5.3448 C   0  0  0  0  0  0  0  0  0  0  0  0
    5.5381   -1.2487   -6.7837 C   0  0  0  0  0  0  0  0  0  0  0  0
    5.8879   -2.6418   -7.0470 N   0  0  0  0  0  0  0  0  0  0  0  0
    5.2703   -3.5827   -6.0955 C   0  0  0  0  0  0  0  0  0  0  0  0
    5.5951   -3.2113   -4.6382 C   0  0  0  0  0  0  0  0  0  0  0  0
    6.8453   -3.1155   -7.9109 C   0  0  0  0  0  0  0  0  0  0  0  0
    7.1786   -4.3077   -7.8592 O   0  0  0  0  0  0  0  0  0  0  0  0
    7.4679   -2.2342   -8.9755 C   0  0  0  0  0  0  0  0  0  0  0  0
    7.6641   -3.0339  -10.0504 C   0  0  0  0  0  0  0  0  0  0  0  0
    9.0476   -3.6010  -10.1794 C   0  0  0  0  0  0  0  0  0  0  0  0
    9.2422   -4.6418  -10.7981 O   0  0  0  0  0  0  0  0  0  0  0  0
   10.0673   -2.9232   -9.5688 N   0  0  0  0  0  0  0  0  0  0  0  0
    9.8747   -1.6841   -8.9517 C   0  0  0  0  0  0  0  0  0  0  0  0
    8.5622   -1.2663   -8.7011 C   0  0  0  0  0  0  0  0  0  0  0  0
    8.3656    0.0760   -8.3605 C   0  0  0  0  0  0  0  0  0  0  0  0
    9.4560    0.9396   -8.1773 C   0  0  0  0  0  0  0  0  0  0  0  0
   10.7567    0.4705   -8.3482 C   0  0  0  0  0  0  0  0  0  0  0  0
   10.9717   -0.8492   -8.7360 C   0  0  0  0  0  0  0  0  0  0  0  0
    1.2761   -0.1499    1.6223 H   0  0  0  0  0  0  0  0  0  0  0  0
    1.8502   -1.6992    0.9949 H   0  0  0  0  0  0  0  0  0  0  0  0
    0.7816   -0.6385   -0.0040 H   0  0  0  0  0  0  0  0  0  0  0  0
    2.0312   -2.2158   -1.2755 H   0  0  0  0  0  0  0  0  0  0  0  0
    3.1785   -2.9265   -3.2722 H   0  0  0  0  0  0  0  0  0  0  0  0
    5.9470    0.3449   -2.8881 H   0  0  0  0  0  0  0  0  0  0  0  0
    4.7637    1.0866   -0.8770 H   0  0  0  0  0  0  0  0  0  0  0  0
    7.0339   -0.9200   -5.2184 H   0  0  0  0  0  0  0  0  0  0  0  0
    5.6422    0.1834   -5.1783 H   0  0  0  0  0  0  0  0  0  0  0  0
    5.9766   -0.5865   -7.5148 H   0  0  0  0  0  0  0  0  0  0  0  0
    4.4539   -1.1658   -6.8951 H   0  0  0  0  0  0  0  0  0  0  0  0
    5.5736   -4.6179   -6.2839 H   0  0  0  0  0  0  0  0  0  0  0  0
    4.1891   -3.5288   -6.2610 H   0  0  0  0  0  0  0  0  0  0  0  0
    6.6612   -3.3756   -4.4380 H   0  0  0  0  0  0  0  0  0  0  0  0
    5.0422   -3.8810   -3.9704 H   0  0  0  0  0  0  0  0  0  0  0  0
    6.9380   -3.7949  -10.3357 H   0  0  0  0  0  0  0  0  0  0  0  0
   10.9940   -3.3027   -9.7011 H   0  0  0  0  0  0  0  0  0  0  0  0
    7.3789    0.5153   -8.2963 H   0  0  0  0  0  0  0  0  0  0  0  0
    9.2863    1.9847   -7.9309 H   0  0  0  0  0  0  0  0  0  0  0  0
   11.5990    1.1489   -8.2325 H   0  0  0  0  0  0  0  0  0  0  0  0
   11.9813   -1.1901   -8.9393 H   0  0  0  0  0  0  0  0  0  0  0  0
  1  2  1  0  0  0  0
  1 28  1  0  0  0  0
  1 29  1  0  0  0  0
  1 30  1  0  0  0  0
  2  3  1  0  0  0  0
  3  4  1  0  0  0  0
  3  8  2  0  0  0  0
  4  5  2  0  0  0  0
  4 31  1  0  0  0  0
  5  6  1  0  0  0  0
  5 32  1  0  0  0  0
  6  7  2  0  0  0  0
  6  9  1  0  0  0  0
  7  8  1  0  0  0  0
  7 33  1  0  0  0  0
  8 34  1  0  0  0  0
  9 10  1  0  0  0  0
  9 14  1  0  0  0  0
 10 11  1  0  0  0  0
 10 35  1  0  0  0  0
 10 36  1  0  0  0  0
 11 12  1  0  0  0  0
 11 37  1  0  0  0  0
 11 38  1  0  0  0  0
 12 13  1  0  0  0  0
 12 15  1  0  0  0  0
 13 14  1  0  0  0  0
 13 39  1  0  0  0  0
 13 40  1  0  0  0  0
 14 41  1  0  0  0  0
 14 42  1  0  0  0  0
 15 16  2  0  0  0  0
 15 17  1  0  0  0  0
 17 18  2  0  0  0  0
 17 23  1  0  0  0  0
 18 19  1  0  0  0  0
 18 43  1  0  0  0  0
 19 20  2  0  0  0  0
 19 21  1  0  0  0  0
 21 22  1  0  0  0  0
 21 44  1  0  0  0  0
 22 23  1  0  0  0  0
 22 27  2  0  0  0  0
 23 24  2  0  0  0  0
 24 25  1  0  0  0  0
 24 45  1  0  0  0  0
 25 26  2  0  0  0  0
 25 46  1  0  0  0  0
 26 27  1  0  0  0  0
 26 47  1  0  0  0  0
 27 48  1  0  0  0  0
M  END
$$$$
