
 OpenBabel07202414183D

 40 44  0  0  1  0  0  0  0  0999 V2000
    0.9780   -0.0184    0.1254 Cl  0  0  0  0  0  0  0  0  0  0  0  0
    2.6933    0.0871    0.0121 C   0  0  0  0  0  0  0  0  0  0  0  0
    3.4627   -1.0659    0.1170 C   0  0  0  0  0  0  0  0  0  0  0  0
    4.8517   -0.9705    0.0372 C   0  0  0  0  0  0  0  0  0  0  0  0
    5.4614    0.2724   -0.1426 C   0  0  0  0  0  0  0  0  0  0  0  0
    4.6942    1.4409   -0.2848 C   0  0  0  0  0  0  0  0  0  0  0  0
    3.2945    1.3303   -0.1840 C   0  0  0  0  0  0  0  0  0  0  0  0
    5.3876    2.7648   -0.4972 C   0  0  2  0  0  0  0  0  0  0  0  0
    6.8497    2.5791   -0.8942 C   0  0  0  0  0  0  0  0  0  0  0  0
    7.4480    1.5248    0.0275 C   0  0  0  0  0  0  0  0  0  0  0  0
    6.8294    0.2553   -0.1940 O   0  0  0  0  0  0  0  0  0  0  0  0
    5.3916    3.4659    0.7507 O   0  0  0  0  0  0  0  0  0  0  0  0
    4.9557    4.7316    0.5139 C   0  0  0  0  0  0  0  0  0  0  0  0
    5.2571    5.6570    1.2521 O   0  0  0  0  0  0  0  0  0  0  0  0
    4.2635    4.7779   -0.6559 N   0  0  0  0  0  0  0  0  0  0  0  0
    3.5847    5.9555   -1.0532 C   0  0  0  0  0  0  0  0  0  0  0  0
    3.8075    6.5514   -2.2904 C   0  0  0  0  0  0  0  0  0  0  0  0
    3.4371    7.8183   -2.5874 N   0  0  0  0  0  0  0  0  0  0  0  0
    2.7816    8.5073   -1.6223 C   0  0  0  0  0  0  0  0  0  0  0  0
    2.3704    7.9660   -0.4040 C   0  0  0  0  0  0  0  0  0  0  0  0
    1.6037    8.6948    0.5281 C   0  0  0  0  0  0  0  0  0  0  0  0
    1.1458    8.0956    1.7022 C   0  0  0  0  0  0  0  0  0  0  0  0
    1.4413    6.7644    1.9566 C   0  0  0  0  0  0  0  0  0  0  0  0
    2.2276    6.0467    1.0557 C   0  0  0  0  0  0  0  0  0  0  0  0
    2.7450    6.6379   -0.1260 C   0  0  0  0  0  0  0  0  0  0  0  0
    4.6688    3.7324   -1.4333 C   0  0  0  0  0  0  0  0  0  0  0  0
    4.5028    3.5789   -2.6309 O   0  0  0  0  0  0  0  0  0  0  0  0
    2.9976   -2.0370    0.2635 H   0  0  0  0  0  0  0  0  0  0  0  0
    5.4638   -1.8652    0.1273 H   0  0  0  0  0  0  0  0  0  0  0  0
    2.6584    2.2108   -0.2582 H   0  0  0  0  0  0  0  0  0  0  0  0
    7.4096    3.5166   -0.7853 H   0  0  0  0  0  0  0  0  0  0  0  0
    6.9277    2.2504   -1.9349 H   0  0  0  0  0  0  0  0  0  0  0  0
    7.3534    1.7919    1.0884 H   0  0  0  0  0  0  0  0  0  0  0  0
    8.5144    1.4108   -0.1790 H   0  0  0  0  0  0  0  0  0  0  0  0
    4.3634    6.0583   -3.0828 H   0  0  0  0  0  0  0  0  0  0  0  0
    2.5698    9.5443   -1.8744 H   0  0  0  0  0  0  0  0  0  0  0  0
    1.3436    9.7339    0.3361 H   0  0  0  0  0  0  0  0  0  0  0  0
    0.5455    8.6608    2.4094 H   0  0  0  0  0  0  0  0  0  0  0  0
    1.0686    6.2786    2.8553 H   0  0  0  0  0  0  0  0  0  0  0  0
    2.4169    5.0010    1.2867 H   0  0  0  0  0  0  0  0  0  0  0  0
  1  2  1  0  0  0  0
  2  3  1  0  0  0  0
  2  7  2  0  0  0  0
  3  4  2  0  0  0  0
  3 28  1  0  0  0  0
  4  5  1  0  0  0  0
  4 29  1  0  0  0  0
  5  6  2  0  0  0  0
  5 11  1  0  0  0  0
  6  7  1  0  0  0  0
  7 30  1  0  0  0  0
  8  6  1  1  0  0  0
  8  9  1  0  0  0  0
  8 12  1  0  0  0  0
  8 26  1  0  0  0  0
  9 10  1  0  0  0  0
  9 31  1  0  0  0  0
  9 32  1  0  0  0  0
 10 11  1  0  0  0  0
 10 33  1  0  0  0  0
 10 34  1  0  0  0  0
 12 13  1  0  0  0  0
 13 14  2  0  0  0  0
 13 15  1  0  0  0  0
 15 16  1  0  0  0  0
 15 26  1  0  0  0  0
 16 17  1  0  0  0  0
 16 25  2  0  0  0  0
 17 18  2  0  0  0  0
 17 35  1  0  0  0  0
 18 19  1  0  0  0  0
 19 20  2  0  0  0  0
 19 36  1  0  0  0  0
 20 21  1  0  0  0  0
 20 25  1  0  0  0  0
 21 22  2  0  0  0  0
 21 37  1  0  0  0  0
 22 23  1  0  0  0  0
 22 38  1  0  0  0  0
 23 24  2  0  0  0  0
 23 39  1  0  0  0  0
 24 25  1  0  0  0  0
 24 40  1  0  0  0  0
 26 27  2  0  0  0  0
M  END
$$$$
