
 OpenBabel07202414193D

 60 64  0  0  1  0  0  0  0  0999 V2000
    3.5086    1.6489    0.4915 O   0  0  0  0  0  0  0  0  0  0  0  0
    2.6422    0.8653    0.8589 C   0  0  0  0  0  0  0  0  0  0  0  0
    2.9690   -0.5832    1.2324 C   0  0  0  0  0  0  0  0  0  0  0  0
    2.0818   -1.1359    2.2958 N   0  0  0  0  0  0  0  0  0  0  0  0
    2.5015   -2.5338    2.5372 C   0  0  0  0  0  0  0  0  0  0  0  0
    1.7804   -3.1889    3.6917 C   0  0  0  0  0  0  0  0  0  0  0  0
    1.7628   -4.5935    3.7734 C   0  0  0  0  0  0  0  0  0  0  0  0
    1.0812   -5.2371    4.8033 C   0  0  0  0  0  0  0  0  0  0  0  0
    0.3991   -4.4816    5.7503 C   0  0  0  0  0  0  0  0  0  0  0  0
   -0.4910   -5.2755    6.9900 Cl  0  0  0  0  0  0  0  0  0  0  0  0
    0.4355   -3.0852    5.7056 C   0  0  0  0  0  0  0  0  0  0  0  0
    1.1587   -2.4239    4.6956 C   0  0  0  0  0  0  0  0  0  0  0  0
    1.2328   -0.9001    4.6581 C   0  0  1  0  0  0  0  0  0  0  0  0
    1.6576   -0.2835    6.0169 C   0  0  0  0  0  0  0  0  0  0  0  0
    0.9339    0.5016    6.6234 O   0  0  0  0  0  0  0  0  0  0  0  0
    2.9155   -0.7170    6.3971 N   0  0  0  0  0  0  0  0  0  0  0  0
    3.6081   -0.4721    7.6086 C   0  0  0  0  0  0  0  0  0  0  0  0
    3.0648    0.2265    8.6838 C   0  0  0  0  0  0  0  0  0  0  0  0
    3.5975    0.2292    9.9248 N   0  0  0  0  0  0  0  0  0  0  0  0
    4.7740   -0.4091   10.0847 C   0  0  0  0  0  0  0  0  0  0  0  0
    5.5269   -0.9420    9.0371 C   0  0  0  0  0  0  0  0  0  0  0  0
    6.8578   -1.3631    9.2199 C   0  0  0  0  0  0  0  0  0  0  0  0
    7.6043   -1.8477    8.1534 C   0  0  0  0  0  0  0  0  0  0  0  0
    7.0064   -1.9935    6.9056 C   0  0  0  0  0  0  0  0  0  0  0  0
    5.6820   -1.6031    6.7177 C   0  0  0  0  0  0  0  0  0  0  0  0
    4.9144   -1.0307    7.7674 C   0  0  0  0  0  0  0  0  0  0  0  0
    2.1980   -0.3762    3.5587 C   0  0  0  0  0  0  0  0  0  0  0  0
    1.3082    1.1845    0.9413 N   0  0  0  0  0  0  0  0  0  0  0  0
    0.7974    2.4951    0.6269 C   0  0  0  0  0  0  0  0  0  0  0  0
    0.3367    2.5516   -0.8048 C   0  0  0  0  0  0  0  0  0  0  0  0
   -0.9702    2.1719   -1.1477 C   0  0  0  0  0  0  0  0  0  0  0  0
   -1.3602    2.1392   -2.4837 C   0  0  0  0  0  0  0  0  0  0  0  0
   -0.4528    2.4828   -3.4773 C   0  0  0  0  0  0  0  0  0  0  0  0
   -0.8251    2.4211   -4.7623 F   0  0  0  0  0  0  0  0  0  0  0  0
    0.8397    2.8804   -3.1576 C   0  0  0  0  0  0  0  0  0  0  0  0
    1.2357    2.9133   -1.8217 C   0  0  0  0  0  0  0  0  0  0  0  0
    4.0228   -0.6228    1.5421 H   0  0  0  0  0  0  0  0  0  0  0  0
    2.8542   -1.1726    0.3162 H   0  0  0  0  0  0  0  0  0  0  0  0
    3.5789   -2.5920    2.7452 H   0  0  0  0  0  0  0  0  0  0  0  0
    2.3003   -3.1156    1.6297 H   0  0  0  0  0  0  0  0  0  0  0  0
    2.2768   -5.1933    3.0241 H   0  0  0  0  0  0  0  0  0  0  0  0
    1.0689   -6.3198    4.8492 H   0  0  0  0  0  0  0  0  0  0  0  0
   -0.1101   -2.5127    6.4586 H   0  0  0  0  0  0  0  0  0  0  0  0
    0.2201   -0.5403    4.4285 H   0  0  0  0  0  0  0  0  0  0  0  0
    3.3331   -1.4214    5.8126 H   0  0  0  0  0  0  0  0  0  0  0  0
    2.1538    0.8078    8.5895 H   0  0  0  0  0  0  0  0  0  0  0  0
    5.1296   -0.4514   11.1113 H   0  0  0  0  0  0  0  0  0  0  0  0
    7.3371   -1.2558   10.1918 H   0  0  0  0  0  0  0  0  0  0  0  0
    8.6533   -2.0973    8.2842 H   0  0  0  0  0  0  0  0  0  0  0  0
    7.5797   -2.3846    6.0703 H   0  0  0  0  0  0  0  0  0  0  0  0
    5.2808   -1.7106    5.7203 H   0  0  0  0  0  0  0  0  0  0  0  0
    3.2446   -0.3906    3.8925 H   0  0  0  0  0  0  0  0  0  0  0  0
    1.9540    0.6820    3.4083 H   0  0  0  0  0  0  0  0  0  0  0  0
    0.6677    0.4351    1.1846 H   0  0  0  0  0  0  0  0  0  0  0  0
    1.5628    3.2553    0.8185 H   0  0  0  0  0  0  0  0  0  0  0  0
   -0.0373    2.6957    1.3076 H   0  0  0  0  0  0  0  0  0  0  0  0
   -1.6808    1.8863   -0.3753 H   0  0  0  0  0  0  0  0  0  0  0  0
   -2.3666    1.8294   -2.7609 H   0  0  0  0  0  0  0  0  0  0  0  0
    1.5338    3.1453   -3.9483 H   0  0  0  0  0  0  0  0  0  0  0  0
    2.2571    3.1988   -1.5718 H   0  0  0  0  0  0  0  0  0  0  0  0
  1  2  2  0  0  0  0
  2  3  1  0  0  0  0
  2 28  1  0  0  0  0
  3  4  1  0  0  0  0
  3 37  1  0  0  0  0
  3 38  1  0  0  0  0
  4  5  1  0  0  0  0
  4 27  1  0  0  0  0
  5  6  1  0  0  0  0
  5 39  1  0  0  0  0
  5 40  1  0  0  0  0
  6  7  1  0  0  0  0
  6 12  2  0  0  0  0
  7  8  2  0  0  0  0
  7 41  1  0  0  0  0
  8  9  1  0  0  0  0
  8 42  1  0  0  0  0
  9 10  1  0  0  0  0
  9 11  2  0  0  0  0
 11 12  1  0  0  0  0
 11 43  1  0  0  0  0
 12 13  1  0  0  0  0
 13 27  1  0  0  0  0
 13 14  1  0  0  0  0
 13 44  1  6  0  0  0
 14 15  2  0  0  0  0
 14 16  1  0  0  0  0
 16 17  1  0  0  0  0
 16 45  1  0  0  0  0
 17 18  1  0  0  0  0
 17 26  2  0  0  0  0
 18 19  2  0  0  0  0
 18 46  1  0  0  0  0
 19 20  1  0  0  0  0
 20 21  2  0  0  0  0
 20 47  1  0  0  0  0
 21 22  1  0  0  0  0
 21 26  1  0  0  0  0
 22 23  2  0  0  0  0
 22 48  1  0  0  0  0
 23 24  1  0  0  0  0
 23 49  1  0  0  0  0
 24 25  2  0  0  0  0
 24 50  1  0  0  0  0
 25 26  1  0  0  0  0
 25 51  1  0  0  0  0
 27 52  1  0  0  0  0
 27 53  1  0  0  0  0
 28 29  1  0  0  0  0
 28 54  1  0  0  0  0
 29 30  1  0  0  0  0
 29 55  1  0  0  0  0
 29 56  1  0  0  0  0
 30 31  1  0  0  0  0
 30 36  2  0  0  0  0
 31 32  2  0  0  0  0
 31 57  1  0  0  0  0
 32 33  1  0  0  0  0
 32 58  1  0  0  0  0
 33 34  1  0  0  0  0
 33 35  2  0  0  0  0
 35 36  1  0  0  0  0
 35 59  1  0  0  0  0
 36 60  1  0  0  0  0
M  END
$$$$
