
 OpenBabel07202414153D

 43 46  0  0  1  0  0  0  0  0999 V2000
    4.1294   -0.4887    1.7273 C   0  0  0  0  0  0  0  0  0  0  0  0
    4.0727    0.3182    0.5520 O   0  0  0  0  0  0  0  0  0  0  0  0
    2.7596    0.8261    0.2000 C   0  0  1  0  0  0  0  0  0  0  0  0
    1.8798   -0.3503   -0.3811 C   0  0  0  0  0  0  0  0  0  0  0  0
    0.6691   -0.4312   -0.1815 O   0  0  0  0  0  0  0  0  0  0  0  0
    2.6423   -1.2484   -1.1221 N   0  0  0  0  0  0  0  0  0  0  0  0
    2.2371   -2.4453   -1.7652 C   0  0  0  0  0  0  0  0  0  0  0  0
    0.9213   -2.9024   -1.7335 C   0  0  0  0  0  0  0  0  0  0  0  0
    0.5241   -4.1180   -2.1731 N   0  0  0  0  0  0  0  0  0  0  0  0
    1.4739   -4.9025   -2.7225 C   0  0  0  0  0  0  0  0  0  0  0  0
    2.7959   -4.5171   -2.9282 C   0  0  0  0  0  0  0  0  0  0  0  0
    3.6940   -5.3553   -3.6134 C   0  0  0  0  0  0  0  0  0  0  0  0
    5.0023   -4.9492   -3.8630 C   0  0  0  0  0  0  0  0  0  0  0  0
    5.4309   -3.7138   -3.3994 C   0  0  0  0  0  0  0  0  0  0  0  0
    4.5497   -2.8790   -2.6979 C   0  0  0  0  0  0  0  0  0  0  0  0
    3.2025   -3.2555   -2.4411 C   0  0  0  0  0  0  0  0  0  0  0  0
    2.0979    1.4950    1.4163 C   0  0  0  0  0  0  0  0  0  0  0  0
    1.0276    2.4833    1.0026 C   0  0  0  0  0  0  0  0  0  0  0  0
    1.5594    3.5365    0.2049 O   0  0  0  0  0  0  0  0  0  0  0  0
    2.3587    3.1285   -0.8252 C   0  0  0  0  0  0  0  0  0  0  0  0
    2.5672    4.0882   -1.8221 C   0  0  0  0  0  0  0  0  0  0  0  0
    3.3712    3.8019   -2.9236 C   0  0  0  0  0  0  0  0  0  0  0  0
    3.9870    2.5607   -3.0103 C   0  0  0  0  0  0  0  0  0  0  0  0
    4.9763    2.1832   -4.3663 Cl  0  0  0  0  0  0  0  0  0  0  0  0
    3.8084    1.6124   -2.0025 C   0  0  0  0  0  0  0  0  0  0  0  0
    2.9795    1.8745   -0.8922 C   0  0  0  0  0  0  0  0  0  0  0  0
    5.1691   -0.7938    1.8745 H   0  0  0  0  0  0  0  0  0  0  0  0
    3.5166   -1.3875    1.6193 H   0  0  0  0  0  0  0  0  0  0  0  0
    3.8278    0.0679    2.6189 H   0  0  0  0  0  0  0  0  0  0  0  0
    3.6417   -1.0797   -1.0680 H   0  0  0  0  0  0  0  0  0  0  0  0
    0.1077   -2.3068   -1.3349 H   0  0  0  0  0  0  0  0  0  0  0  0
    1.1221   -5.8875   -3.0188 H   0  0  0  0  0  0  0  0  0  0  0  0
    3.3683   -6.3260   -3.9848 H   0  0  0  0  0  0  0  0  0  0  0  0
    5.6760   -5.5864   -4.4270 H   0  0  0  0  0  0  0  0  0  0  0  0
    6.4466   -3.3790   -3.6061 H   0  0  0  0  0  0  0  0  0  0  0  0
    4.9399   -1.9119   -2.3853 H   0  0  0  0  0  0  0  0  0  0  0  0
    2.8620    2.0384    1.9900 H   0  0  0  0  0  0  0  0  0  0  0  0
    1.6633    0.7480    2.0914 H   0  0  0  0  0  0  0  0  0  0  0  0
    0.6153    2.9525    1.9037 H   0  0  0  0  0  0  0  0  0  0  0  0
    0.1897    2.0145    0.4775 H   0  0  0  0  0  0  0  0  0  0  0  0
    2.0900    5.0621   -1.7409 H   0  0  0  0  0  0  0  0  0  0  0  0
    3.5129    4.5475   -3.7003 H   0  0  0  0  0  0  0  0  0  0  0  0
    4.3324    0.6667   -2.0907 H   0  0  0  0  0  0  0  0  0  0  0  0
  1  2  1  0  0  0  0
  1 27  1  0  0  0  0
  1 28  1  0  0  0  0
  1 29  1  0  0  0  0
  3 17  1  0  0  0  0
  3 26  1  0  0  0  0
  3  4  1  6  0  0  0
  3  2  1  0  0  0  0
  4  5  2  0  0  0  0
  4  6  1  0  0  0  0
  6  7  1  0  0  0  0
  6 30  1  0  0  0  0
  7  8  1  0  0  0  0
  7 16  2  0  0  0  0
  8  9  2  0  0  0  0
  8 31  1  0  0  0  0
  9 10  1  0  0  0  0
 10 11  2  0  0  0  0
 10 32  1  0  0  0  0
 11 12  1  0  0  0  0
 11 16  1  0  0  0  0
 12 13  2  0  0  0  0
 12 33  1  0  0  0  0
 13 14  1  0  0  0  0
 13 34  1  0  0  0  0
 14 15  2  0  0  0  0
 14 35  1  0  0  0  0
 15 16  1  0  0  0  0
 15 36  1  0  0  0  0
 17 18  1  0  0  0  0
 17 37  1  0  0  0  0
 17 38  1  0  0  0  0
 18 19  1  0  0  0  0
 18 39  1  0  0  0  0
 18 40  1  0  0  0  0
 19 20  1  0  0  0  0
 20 21  1  0  0  0  0
 20 26  2  0  0  0  0
 21 22  2  0  0  0  0
 21 41  1  0  0  0  0
 22 23  1  0  0  0  0
 22 42  1  0  0  0  0
 23 24  1  0  0  0  0
 23 25  2  0  0  0  0
 25 26  1  0  0  0  0
 25 43  1  0  0  0  0
M  END
$$$$
