
 OpenBabel07202414123D

 65 69  0  0  1  0  0  0  0  0999 V2000
    7.5834   -7.1140   -2.0432 C   0  0  0  0  0  0  0  0  0  0  0  0
    7.9493   -6.2084   -0.8561 C   0  0  0  0  0  0  0  0  0  0  0  0
    7.9029   -7.0285    0.4419 C   0  0  0  0  0  0  0  0  0  0  0  0
    9.3202   -5.7129   -1.0635 N   0  0  0  0  0  0  0  0  0  0  0  0
    6.9408   -5.0329   -0.8122 C   0  0  0  0  0  0  0  0  0  0  0  0
    7.1156   -4.1044    0.2883 N   0  0  0  0  0  0  0  0  0  0  0  0
    6.1593   -3.1357    0.5164 C   0  0  0  0  0  0  0  0  0  0  0  0
    5.1636   -3.0223   -0.1917 O   0  0  0  0  0  0  0  0  0  0  0  0
    6.4139   -2.1931    1.6954 C   0  0  0  0  0  0  0  0  0  0  0  0
    7.0925   -2.8574    2.8270 N   0  0  0  0  0  0  0  0  0  0  0  0
    6.2994   -3.9422    3.4259 C   0  0  0  0  0  0  0  0  0  0  0  0
    5.2602   -3.5304    4.4444 C   0  0  0  0  0  0  0  0  0  0  0  0
    4.2070   -4.4247    4.7243 C   0  0  0  0  0  0  0  0  0  0  0  0
    3.2493   -4.1321    5.6962 C   0  0  0  0  0  0  0  0  0  0  0  0
    3.3453   -2.9492    6.4117 C   0  0  0  0  0  0  0  0  0  0  0  0
    2.1742   -2.5655    7.6122 Cl  0  0  0  0  0  0  0  0  0  0  0  0
    4.3884   -2.0613    6.1595 C   0  0  0  0  0  0  0  0  0  0  0  0
    5.3622   -2.3320    5.1733 C   0  0  0  0  0  0  0  0  0  0  0  0
    6.4522   -1.3018    4.8359 C   0  0  3  0  0  0  0  0  0  0  0  0
    7.2139   -0.8163    6.0958 C   0  0  0  0  0  0  0  0  0  0  0  0
    6.7786    0.6138    6.3402 C   0  0  0  0  0  0  0  0  0  0  0  0
    5.6159    0.8203    5.5250 N   0  0  0  0  0  0  0  0  0  0  0  0
    4.8099    1.9953    5.6587 C   0  0  0  0  0  0  0  0  0  0  0  0
    4.3776    2.7014    4.5335 C   0  0  0  0  0  0  0  0  0  0  0  0
    3.7817    3.9179    4.5652 N   0  0  0  0  0  0  0  0  0  0  0  0
    3.5309    4.4355    5.7839 C   0  0  0  0  0  0  0  0  0  0  0  0
    3.7651    3.7746    6.9846 C   0  0  0  0  0  0  0  0  0  0  0  0
    3.3354    4.3391    8.2024 C   0  0  0  0  0  0  0  0  0  0  0  0
    3.5022    3.6610    9.4048 C   0  0  0  0  0  0  0  0  0  0  0  0
    4.0911    2.4075    9.3993 C   0  0  0  0  0  0  0  0  0  0  0  0
    4.5084    1.8386    8.1894 C   0  0  0  0  0  0  0  0  0  0  0  0
    4.4035    2.5118    6.9386 C   0  0  0  0  0  0  0  0  0  0  0  0
    5.7402    0.0008    4.3777 C   0  0  0  0  0  0  0  0  0  0  0  0
    5.2595    0.1942    3.2741 O   0  0  0  0  0  0  0  0  0  0  0  0
    7.5082   -1.8864    3.8540 C   0  0  0  0  0  0  0  0  0  0  0  0
    8.2717   -7.9617   -2.1353 H   0  0  0  0  0  0  0  0  0  0  0  0
    7.6051   -6.5602   -2.9893 H   0  0  0  0  0  0  0  0  0  0  0  0
    6.5723   -7.5225   -1.9259 H   0  0  0  0  0  0  0  0  0  0  0  0
    8.5704   -7.8970    0.3877 H   0  0  0  0  0  0  0  0  0  0  0  0
    6.8911   -7.4035    0.6333 H   0  0  0  0  0  0  0  0  0  0  0  0
    8.2076   -6.4346    1.3109 H   0  0  0  0  0  0  0  0  0  0  0  0
    9.9796   -6.4895   -1.0274 H   0  0  0  0  0  0  0  0  0  0  0  0
    9.5828   -5.0745   -0.3169 H   0  0  0  0  0  0  0  0  0  0  0  0
    5.9190   -5.4289   -0.7419 H   0  0  0  0  0  0  0  0  0  0  0  0
    6.9903   -4.4496   -1.7405 H   0  0  0  0  0  0  0  0  0  0  0  0
    7.9956   -4.0191    0.7818 H   0  0  0  0  0  0  0  0  0  0  0  0
    5.4463   -1.7869    1.9928 H   0  0  0  0  0  0  0  0  0  0  0  0
    7.0446   -1.3830    1.3089 H   0  0  0  0  0  0  0  0  0  0  0  0
    6.9957   -4.6189    3.9393 H   0  0  0  0  0  0  0  0  0  0  0  0
    5.8238   -4.5531    2.6495 H   0  0  0  0  0  0  0  0  0  0  0  0
    4.1233   -5.3614    4.1753 H   0  0  0  0  0  0  0  0  0  0  0  0
    2.4364   -4.8273    5.8864 H   0  0  0  0  0  0  0  0  0  0  0  0
    4.4145   -1.1381    6.7298 H   0  0  0  0  0  0  0  0  0  0  0  0
    8.3026   -0.8199    5.9616 H   0  0  0  0  0  0  0  0  0  0  0  0
    7.0124   -1.4456    6.9694 H   0  0  0  0  0  0  0  0  0  0  0  0
    7.5487    1.3057    5.9759 H   0  0  0  0  0  0  0  0  0  0  0  0
    6.6533    0.8005    7.4015 H   0  0  0  0  0  0  0  0  0  0  0  0
    4.5301    2.3381    3.5224 H   0  0  0  0  0  0  0  0  0  0  0  0
    3.0932    5.4313    5.7642 H   0  0  0  0  0  0  0  0  0  0  0  0
    2.8274    5.3023    8.2148 H   0  0  0  0  0  0  0  0  0  0  0  0
    3.1424    4.0935   10.3351 H   0  0  0  0  0  0  0  0  0  0  0  0
    4.2051    1.8546   10.3283 H   0  0  0  0  0  0  0  0  0  0  0  0
    4.8667    0.8156    8.2430 H   0  0  0  0  0  0  0  0  0  0  0  0
    8.2462   -2.4384    4.4558 H   0  0  0  0  0  0  0  0  0  0  0  0
    8.0855   -1.0762    3.3905 H   0  0  0  0  0  0  0  0  0  0  0  0
  1  2  1  0  0  0  0
  1 36  1  0  0  0  0
  1 37  1  0  0  0  0
  1 38  1  0  0  0  0
  2  3  1  0  0  0  0
  2  4  1  0  0  0  0
  2  5  1  0  0  0  0
  3 39  1  0  0  0  0
  3 40  1  0  0  0  0
  3 41  1  0  0  0  0
  4 42  1  0  0  0  0
  4 43  1  0  0  0  0
  5  6  1  0  0  0  0
  5 44  1  0  0  0  0
  5 45  1  0  0  0  0
  6  7  1  0  0  0  0
  6 46  1  0  0  0  0
  7  8  2  0  0  0  0
  7  9  1  0  0  0  0
  9 10  1  0  0  0  0
  9 47  1  0  0  0  0
  9 48  1  0  0  0  0
 10 11  1  0  0  0  0
 10 35  1  0  0  0  0
 11 12  1  0  0  0  0
 11 49  1  0  0  0  0
 11 50  1  0  0  0  0
 12 13  1  0  0  0  0
 12 18  2  0  0  0  0
 13 14  2  0  0  0  0
 13 51  1  0  0  0  0
 14 15  1  0  0  0  0
 14 52  1  0  0  0  0
 15 16  1  0  0  0  0
 15 17  2  0  0  0  0
 17 18  1  0  0  0  0
 17 53  1  0  0  0  0
 18 19  1  0  0  0  0
 19 20  1  0  0  0  0
 19 33  1  0  0  0  0
 19 35  1  0  0  0  0
 20 21  1  0  0  0  0
 20 54  1  0  0  0  0
 20 55  1  0  0  0  0
 21 22  1  0  0  0  0
 21 56  1  0  0  0  0
 21 57  1  0  0  0  0
 22 23  1  0  0  0  0
 22 33  1  0  0  0  0
 23 24  1  0  0  0  0
 23 32  2  0  0  0  0
 24 25  2  0  0  0  0
 24 58  1  0  0  0  0
 25 26  1  0  0  0  0
 26 27  2  0  0  0  0
 26 59  1  0  0  0  0
 27 28  1  0  0  0  0
 27 32  1  0  0  0  0
 28 29  2  0  0  0  0
 28 60  1  0  0  0  0
 29 30  1  0  0  0  0
 29 61  1  0  0  0  0
 30 31  2  0  0  0  0
 30 62  1  0  0  0  0
 31 32  1  0  0  0  0
 31 63  1  0  0  0  0
 33 34  2  0  0  0  0
 35 64  1  0  0  0  0
 35 65  1  0  0  0  0
M  END
$$$$
