
 OpenBabel07202414183D

 34 36  0  0  0  0  0  0  0  0999 V2000
    1.6922   -0.3890   -2.5602 F   0  0  0  0  0  0  0  0  0  0  0  0
    2.8185   -0.2795   -1.8442 C   0  0  0  0  0  0  0  0  0  0  0  0
    3.5373    0.9059   -1.8741 C   0  0  0  0  0  0  0  0  0  0  0  0
    4.7199    1.0126   -1.1520 C   0  0  0  0  0  0  0  0  0  0  0  0
    5.2153   -0.0714   -0.3907 C   0  0  0  0  0  0  0  0  0  0  0  0
    6.4546   -0.0561    0.2941 C   0  0  0  0  0  0  0  0  0  0  0  0
    7.2355    1.1243    0.3400 N   0  0  0  0  0  0  0  0  0  0  0  0
    8.5961    1.1212    0.0810 C   0  0  0  0  0  0  0  0  0  0  0  0
    9.2453    0.1277   -0.2338 O   0  0  0  0  0  0  0  0  0  0  0  0
    9.2391    2.4895    0.2034 C   0  0  0  0  0  0  0  0  0  0  0  0
    9.1260    3.3747   -1.0185 C   0  0  0  0  0  0  0  0  0  0  0  0
    9.6057    2.9550   -2.2684 C   0  0  0  0  0  0  0  0  0  0  0  0
    9.6164    3.8306   -3.3596 C   0  0  0  0  0  0  0  0  0  0  0  0
    9.1493    5.1369   -3.2177 C   0  0  0  0  0  0  0  0  0  0  0  0
    8.6604    5.5582   -1.9852 C   0  0  0  0  0  0  0  0  0  0  0  0
    8.0976    7.1735   -1.7957 Cl  0  0  0  0  0  0  0  0  0  0  0  0
    8.6451    4.6885   -0.8918 C   0  0  0  0  0  0  0  0  0  0  0  0
    6.8684   -1.2214    0.9428 C   0  0  0  0  0  0  0  0  0  0  0  0
    6.1454   -2.3637    0.9967 N   0  0  0  0  0  0  0  0  0  0  0  0
    4.9692   -2.3634    0.3338 C   0  0  0  0  0  0  0  0  0  0  0  0
    4.4641   -1.2733   -0.3794 C   0  0  0  0  0  0  0  0  0  0  0  0
    3.2618   -1.3654   -1.1004 C   0  0  0  0  0  0  0  0  0  0  0  0
    3.1789    1.7333   -2.4837 H   0  0  0  0  0  0  0  0  0  0  0  0
    5.2711    1.9481   -1.2345 H   0  0  0  0  0  0  0  0  0  0  0  0
    6.7595    2.0050    0.1974 H   0  0  0  0  0  0  0  0  0  0  0  0
   10.3017    2.3444    0.4332 H   0  0  0  0  0  0  0  0  0  0  0  0
    8.8060    2.9903    1.0782 H   0  0  0  0  0  0  0  0  0  0  0  0
   10.0061    1.9495   -2.3980 H   0  0  0  0  0  0  0  0  0  0  0  0
   10.0132    3.5002   -4.3180 H   0  0  0  0  0  0  0  0  0  0  0  0
    9.1838    5.8205   -4.0623 H   0  0  0  0  0  0  0  0  0  0  0  0
    8.2864    5.0524    0.0682 H   0  0  0  0  0  0  0  0  0  0  0  0
    7.8066   -1.2621    1.4901 H   0  0  0  0  0  0  0  0  0  0  0  0
    4.4301   -3.3061    0.3809 H   0  0  0  0  0  0  0  0  0  0  0  0
    2.6794   -2.2815   -1.1147 H   0  0  0  0  0  0  0  0  0  0  0  0
  1  2  1  0  0  0  0
  2  3  1  0  0  0  0
  2 22  2  0  0  0  0
  3  4  2  0  0  0  0
  3 23  1  0  0  0  0
  4  5  1  0  0  0  0
  4 24  1  0  0  0  0
  5  6  1  0  0  0  0
  5 21  2  0  0  0  0
  6  7  1  0  0  0  0
  6 18  2  0  0  0  0
  7  8  1  0  0  0  0
  7 25  1  0  0  0  0
  8  9  2  0  0  0  0
  8 10  1  0  0  0  0
 10 11  1  0  0  0  0
 10 26  1  0  0  0  0
 10 27  1  0  0  0  0
 11 12  1  0  0  0  0
 11 17  2  0  0  0  0
 12 13  2  0  0  0  0
 12 28  1  0  0  0  0
 13 14  1  0  0  0  0
 13 29  1  0  0  0  0
 14 15  2  0  0  0  0
 14 30  1  0  0  0  0
 15 16  1  0  0  0  0
 15 17  1  0  0  0  0
 17 31  1  0  0  0  0
 18 19  1  0  0  0  0
 18 32  1  0  0  0  0
 19 20  2  0  0  0  0
 20 21  1  0  0  0  0
 20 33  1  0  0  0  0
 21 22  1  0  0  0  0
 22 34  1  0  0  0  0
M  END
$$$$
