
 OpenBabel07202414193D

 57 61  0  0  1  0  0  0  0  0999 V2000
    0.8316   -0.2931   -0.3051 O   0  0  0  0  0  0  0  0  0  0  0  0
    2.0338   -0.0822   -0.0671 C   0  0  0  0  0  0  0  0  0  0  0  0
    2.4576   -0.3523    1.3787 C   0  0  0  0  0  0  0  0  0  0  0  0
    2.4995    0.8409    2.3138 C   0  0  0  0  0  0  0  0  0  0  0  0
    1.6815    1.9446    2.0523 C   0  0  0  0  0  0  0  0  0  0  0  0
    1.6583    3.0865    2.7687 N   0  0  0  0  0  0  0  0  0  0  0  0
    2.4270    3.1153    3.8732 C   0  0  0  0  0  0  0  0  0  0  0  0
    3.2084    2.0534    4.3096 C   0  0  0  0  0  0  0  0  0  0  0  0
    3.9110    2.1290    5.5281 C   0  0  0  0  0  0  0  0  0  0  0  0
    4.6323    1.0371    5.9941 C   0  0  0  0  0  0  0  0  0  0  0  0
    4.6808   -0.1287    5.2450 C   0  0  0  0  0  0  0  0  0  0  0  0
    4.0097   -0.2151    4.0261 C   0  0  0  0  0  0  0  0  0  0  0  0
    3.2524    0.8785    3.5195 C   0  0  0  0  0  0  0  0  0  0  0  0
    2.8851    0.3722   -1.0895 N   0  0  0  0  0  0  0  0  0  0  0  0
    2.1923    0.5816   -2.3693 C   0  0  0  0  0  0  0  0  0  0  0  0
    2.1227   -0.5756   -3.3412 C   0  0  0  0  0  0  0  0  0  0  0  0
    1.0571   -1.4864   -3.3043 C   0  0  0  0  0  0  0  0  0  0  0  0
    0.8478   -2.3777   -4.3604 C   0  0  0  0  0  0  0  0  0  0  0  0
    1.7095   -2.3794   -5.4556 C   0  0  0  0  0  0  0  0  0  0  0  0
    2.8046   -1.5195   -5.4779 C   0  0  0  0  0  0  0  0  0  0  0  0
    3.0164   -0.6300   -4.4228 C   0  0  0  0  0  0  0  0  0  0  0  0
    4.3048    0.8736   -1.0655 C   0  0  2  0  0  0  0  0  0  0  0  0
    5.2321    0.2036   -0.0354 C   0  0  0  0  0  0  0  0  0  0  0  0
    6.3458    1.1683    0.2980 C   0  0  0  0  0  0  0  0  0  0  0  0
    6.0186    2.4376   -0.4408 C   0  0  0  0  0  0  0  0  0  0  0  0
    4.5116    2.4152   -0.8349 C   0  0  0  0  0  0  0  0  0  0  0  0
    3.1412    3.1826   -0.4839 C   0  0  0  0  0  0  0  0  0  0  0  0
    3.2091    3.8651   -1.8697 C   0  0  0  0  0  0  0  0  0  0  0  0
    4.6978    3.7626   -1.7167 C   0  0  0  0  0  0  0  0  0  0  0  0
    3.3424   -0.9873    1.3892 H   0  0  0  0  0  0  0  0  0  0  0  0
    1.6906   -1.0185    1.8036 H   0  0  0  0  0  0  0  0  0  0  0  0
    0.9906    1.9570    1.2086 H   0  0  0  0  0  0  0  0  0  0  0  0
    2.3951    4.0549    4.4180 H   0  0  0  0  0  0  0  0  0  0  0  0
    3.8688    3.0348    6.1293 H   0  0  0  0  0  0  0  0  0  0  0  0
    5.1448    1.0905    6.9509 H   0  0  0  0  0  0  0  0  0  0  0  0
    5.2248   -0.9912    5.6115 H   0  0  0  0  0  0  0  0  0  0  0  0
    4.0566   -1.1445    3.4708 H   0  0  0  0  0  0  0  0  0  0  0  0
    2.6918    1.3919   -2.8976 H   0  0  0  0  0  0  0  0  0  0  0  0
    1.1752    0.9544   -2.1943 H   0  0  0  0  0  0  0  0  0  0  0  0
    0.3418   -1.4646   -2.4838 H   0  0  0  0  0  0  0  0  0  0  0  0
   -0.0118   -3.0428   -4.3449 H   0  0  0  0  0  0  0  0  0  0  0  0
    1.5184   -3.0401   -6.2972 H   0  0  0  0  0  0  0  0  0  0  0  0
    3.4730   -1.5139   -6.3350 H   0  0  0  0  0  0  0  0  0  0  0  0
    3.8469    0.0690   -4.4840 H   0  0  0  0  0  0  0  0  0  0  0  0
    4.7219    0.6358   -2.0532 H   0  0  0  0  0  0  0  0  0  0  0  0
    5.5981   -0.7661   -0.3888 H   0  0  0  0  0  0  0  0  0  0  0  0
    4.7722    0.0328    0.9236 H   0  0  0  0  0  0  0  0  0  0  0  0
    7.3277    0.7751    0.0120 H   0  0  0  0  0  0  0  0  0  0  0  0
    6.3811    1.3666    1.3755 H   0  0  0  0  0  0  0  0  0  0  0  0
    6.6148    2.3820   -1.3700 H   0  0  0  0  0  0  0  0  0  0  0  0
    6.3518    3.3248    0.1041 H   0  0  0  0  0  0  0  0  0  0  0  0
    3.1857    3.8722    0.3630 H   0  0  0  0  0  0  0  0  0  0  0  0
    2.2079    2.6248   -0.4314 H   0  0  0  0  0  0  0  0  0  0  0  0
    2.7893    4.8716   -1.9350 H   0  0  0  0  0  0  0  0  0  0  0  0
    2.8660    3.3127   -2.7438 H   0  0  0  0  0  0  0  0  0  0  0  0
    5.0562    4.6236   -1.1146 H   0  0  0  0  0  0  0  0  0  0  0  0
    5.3044    3.7396   -2.6231 H   0  0  0  0  0  0  0  0  0  0  0  0
  1  2  2  0  0  0  0
  2  3  1  0  0  0  0
  2 14  1  0  0  0  0
  3  4  1  0  0  0  0
  3 30  1  0  0  0  0
  3 31  1  0  0  0  0
  4  5  1  0  0  0  0
  4 13  2  0  0  0  0
  5  6  2  0  0  0  0
  5 32  1  0  0  0  0
  6  7  1  0  0  0  0
  7  8  2  0  0  0  0
  7 33  1  0  0  0  0
  8  9  1  0  0  0  0
  8 13  1  0  0  0  0
  9 10  2  0  0  0  0
  9 34  1  0  0  0  0
 10 11  1  0  0  0  0
 10 35  1  0  0  0  0
 11 12  2  0  0  0  0
 11 36  1  0  0  0  0
 12 13  1  0  0  0  0
 12 37  1  0  0  0  0
 14 15  1  0  0  0  0
 14 22  1  0  0  0  0
 15 16  1  0  0  0  0
 15 38  1  0  0  0  0
 15 39  1  0  0  0  0
 16 17  1  0  0  0  0
 16 21  2  0  0  0  0
 17 18  2  0  0  0  0
 17 40  1  0  0  0  0
 18 19  1  0  0  0  0
 18 41  1  0  0  0  0
 19 20  2  0  0  0  0
 19 42  1  0  0  0  0
 20 21  1  0  0  0  0
 20 43  1  0  0  0  0
 21 44  1  0  0  0  0
 22 23  1  0  0  0  0
 22 26  1  0  0  0  0
 22 45  1  6  0  0  0
 23 24  1  0  0  0  0
 23 46  1  0  0  0  0
 23 47  1  0  0  0  0
 24 25  1  0  0  0  0
 24 48  1  0  0  0  0
 24 49  1  0  0  0  0
 25 26  1  0  0  0  0
 25 50  1  0  0  0  0
 25 51  1  0  0  0  0
 26 27  1  0  0  0  0
 26 29  1  0  0  0  0
 27 28  1  0  0  0  0
 27 52  1  0  0  0  0
 27 53  1  0  0  0  0
 28 29  1  0  0  0  0
 28 54  1  0  0  0  0
 28 55  1  0  0  0  0
 29 56  1  0  0  0  0
 29 57  1  0  0  0  0
M  END
$$$$
