
 OpenBabel07202414173D

 55 59  0  0  1  0  0  0  0  0999 V2000
    1.0780   -0.0890   -0.0458 Cl  0  0  0  0  0  0  0  0  0  0  0  0
    2.7951   -0.0944    0.0488 C   0  0  0  0  0  0  0  0  0  0  0  0
    3.4969    1.0977   -0.1017 C   0  0  0  0  0  0  0  0  0  0  0  0
    4.8912    1.0916   -0.0575 C   0  0  0  0  0  0  0  0  0  0  0  0
    5.5961   -0.1054    0.1463 C   0  0  0  0  0  0  0  0  0  0  0  0
    4.8793   -1.3025    0.3380 C   0  0  0  0  0  0  0  0  0  0  0  0
    3.4751   -1.2897    0.2784 C   0  0  0  0  0  0  0  0  0  0  0  0
    5.6196   -2.5846    0.6854 C   0  0  3  0  0  0  0  0  0  0  0  0
    5.6119   -2.9360    2.1872 C   0  0  0  0  0  0  0  0  0  0  0  0
    5.6842   -4.1096    2.5463 O   0  0  0  0  0  0  0  0  0  0  0  0
    5.5488   -1.8436    3.0316 N   0  0  0  0  0  0  0  0  0  0  0  0
    5.3278   -1.8112    4.4289 C   0  0  0  0  0  0  0  0  0  0  0  0
    5.1498   -2.9580    5.2007 C   0  0  0  0  0  0  0  0  0  0  0  0
    4.7783   -2.9468    6.5029 N   0  0  0  0  0  0  0  0  0  0  0  0
    4.6226   -1.7364    7.0788 C   0  0  0  0  0  0  0  0  0  0  0  0
    4.8765   -0.5205    6.4474 C   0  0  0  0  0  0  0  0  0  0  0  0
    4.8000    0.6972    7.1498 C   0  0  0  0  0  0  0  0  0  0  0  0
    5.0805    1.9067    6.5178 C   0  0  0  0  0  0  0  0  0  0  0  0
    5.4126    1.9154    5.1712 C   0  0  0  0  0  0  0  0  0  0  0  0
    5.4796    0.7125    4.4626 C   0  0  0  0  0  0  0  0  0  0  0  0
    5.2292   -0.5430    5.0801 C   0  0  0  0  0  0  0  0  0  0  0  0
    7.0487   -2.5564    0.1418 C   0  0  0  0  0  0  0  0  0  0  0  0
    7.7911   -1.3163    0.5445 N   0  0  0  0  0  0  0  0  0  0  0  0
    9.4219   -1.3934    0.0465 S   0  0  0  0  0  0  0  0  0  0  0  0
   10.0102   -2.5712    0.6303 O   0  0  0  0  0  0  0  0  0  0  0  0
    9.4775   -1.1212   -1.3711 O   0  0  0  0  0  0  0  0  0  0  0  0
   10.0513   -0.0744    0.8866 N   0  0  0  0  0  0  0  0  0  0  0  0
   11.4694    0.3557    0.6110 C   0  0  0  0  0  0  0  0  0  0  0  0
   12.0087    1.5912    1.3736 C   0  0  0  0  0  0  0  0  0  0  0  0
   12.8325    1.9127    0.1077 C   0  0  0  0  0  0  0  0  0  0  0  0
   11.7505    1.1523   -0.6882 C   0  0  0  0  0  0  0  0  0  0  0  0
    7.1116   -0.0733    0.0959 C   0  0  0  0  0  0  0  0  0  0  0  0
    2.9666    2.0320   -0.2685 H   0  0  0  0  0  0  0  0  0  0  0  0
    5.4284    2.0287   -0.1963 H   0  0  0  0  0  0  0  0  0  0  0  0
    2.9096   -2.2105    0.4125 H   0  0  0  0  0  0  0  0  0  0  0  0
    5.0917   -3.4100    0.1851 H   0  0  0  0  0  0  0  0  0  0  0  0
    5.5254   -0.9461    2.5752 H   0  0  0  0  0  0  0  0  0  0  0  0
    5.2912   -3.9574    4.8021 H   0  0  0  0  0  0  0  0  0  0  0  0
    4.2804   -1.7741    8.1106 H   0  0  0  0  0  0  0  0  0  0  0  0
    4.5422    0.7078    8.2069 H   0  0  0  0  0  0  0  0  0  0  0  0
    5.0515    2.8374    7.0785 H   0  0  0  0  0  0  0  0  0  0  0  0
    5.6304    2.8549    4.6693 H   0  0  0  0  0  0  0  0  0  0  0  0
    5.7638    0.7860    3.4171 H   0  0  0  0  0  0  0  0  0  0  0  0
    7.0192   -2.6088   -0.9559 H   0  0  0  0  0  0  0  0  0  0  0  0
    7.5853   -3.4427    0.5050 H   0  0  0  0  0  0  0  0  0  0  0  0
    9.9384   -0.2994    1.8775 H   0  0  0  0  0  0  0  0  0  0  0  0
   12.1414   -0.5074    0.7222 H   0  0  0  0  0  0  0  0  0  0  0  0
   12.5958    1.3761    2.2704 H   0  0  0  0  0  0  0  0  0  0  0  0
   11.2542    2.3493    1.6123 H   0  0  0  0  0  0  0  0  0  0  0  0
   13.8171    1.4298    0.0859 H   0  0  0  0  0  0  0  0  0  0  0  0
   12.9515    2.9719   -0.1328 H   0  0  0  0  0  0  0  0  0  0  0  0
   12.1170    0.5675   -1.5359 H   0  0  0  0  0  0  0  0  0  0  0  0
   10.9231    1.7886   -1.0230 H   0  0  0  0  0  0  0  0  0  0  0  0
    7.3895    0.1751   -0.9338 H   0  0  0  0  0  0  0  0  0  0  0  0
    7.4444    0.7350    0.7590 H   0  0  0  0  0  0  0  0  0  0  0  0
  1  2  1  0  0  0  0
  2  3  1  0  0  0  0
  2  7  2  0  0  0  0
  3  4  2  0  0  0  0
  3 33  1  0  0  0  0
  4  5  1  0  0  0  0
  4 34  1  0  0  0  0
  5  6  2  0  0  0  0
  5 32  1  0  0  0  0
  6  7  1  0  0  0  0
  6  8  1  0  0  0  0
  7 35  1  0  0  0  0
  8  9  1  0  0  0  0
  8 22  1  0  0  0  0
  8 36  1  0  0  0  0
  9 10  2  0  0  0  0
  9 11  1  0  0  0  0
 11 12  1  0  0  0  0
 11 37  1  0  0  0  0
 12 13  1  0  0  0  0
 12 21  2  0  0  0  0
 13 14  2  0  0  0  0
 13 38  1  0  0  0  0
 14 15  1  0  0  0  0
 15 16  2  0  0  0  0
 15 39  1  0  0  0  0
 16 17  1  0  0  0  0
 16 21  1  0  0  0  0
 17 18  2  0  0  0  0
 17 40  1  0  0  0  0
 18 19  1  0  0  0  0
 18 41  1  0  0  0  0
 19 20  2  0  0  0  0
 19 42  1  0  0  0  0
 20 21  1  0  0  0  0
 20 43  1  0  0  0  0
 22 23  1  0  0  0  0
 22 44  1  0  0  0  0
 22 45  1  0  0  0  0
 23 24  1  0  0  0  0
 23 32  1  0  0  0  0
 24 25  2  0  0  0  0
 24 26  2  0  0  0  0
 24 27  1  0  0  0  0
 27 28  1  0  0  0  0
 27 46  1  0  0  0  0
 28 29  1  0  0  0  0
 28 31  1  0  0  0  0
 28 47  1  0  0  0  0
 29 30  1  0  0  0  0
 29 48  1  0  0  0  0
 29 49  1  0  0  0  0
 30 31  1  0  0  0  0
 30 50  1  0  0  0  0
 30 51  1  0  0  0  0
 31 52  1  0  0  0  0
 31 53  1  0  0  0  0
 32 54  1  0  0  0  0
 32 55  1  0  0  0  0
M  END
$$$$
