
 OpenBabel07202414203D

 28 30  0  0  0  0  0  0  0  0999 V2000
    2.1621    0.6330    0.0023 C   0  0  0  0  0  0  0  0  0  0  0  0
    2.1742   -0.7586    0.0686 C   0  0  0  0  0  0  0  0  0  0  0  0
    0.9737   -1.5011    0.1123 C   0  0  0  0  0  0  0  0  0  0  0  0
   -0.2572   -0.8007    0.0584 C   0  0  0  0  0  0  0  0  0  0  0  0
   -1.6352   -1.1744    0.0255 C   0  0  0  0  0  0  0  0  0  0  0  0
   -2.3920   -0.0273   -0.0241 C   0  0  0  0  0  0  0  0  0  0  0  0
   -1.5345    1.0369   -0.0264 N   0  0  0  0  0  0  0  0  0  0  0  0
   -0.2292    0.5973    0.0024 C   0  0  0  0  0  0  0  0  0  0  0  0
    0.9589    1.3365   -0.0203 C   0  0  0  0  0  0  0  0  0  0  0  0
    0.9737   -2.9893    0.1295 C   0  0  0  0  0  0  0  0  0  0  0  0
   -0.0166   -3.7044    0.1062 O   0  0  0  0  0  0  0  0  0  0  0  0
    2.2811   -3.4448    0.0764 O   0  0  0  0  0  0  0  0  0  0  0  0
    2.5042   -4.4248   -0.8943 C   0  0  0  0  0  0  0  0  0  0  0  0
    1.9410   -4.3390   -2.1676 C   0  0  0  0  0  0  0  0  0  0  0  0
    2.3087   -5.2726   -3.1241 C   0  0  0  0  0  0  0  0  0  0  0  0
    3.2398   -6.2413   -2.7809 C   0  0  0  0  0  0  0  0  0  0  0  0
    3.8162   -6.3387   -1.5546 N   0  0  0  0  0  0  0  0  0  0  0  0
    3.4347   -5.4225   -0.6326 C   0  0  0  0  0  0  0  0  0  0  0  0
    1.6423   -5.1981   -4.7044 Cl  0  0  0  0  0  0  0  0  0  0  0  0
    3.1032    1.1780   -0.0357 H   0  0  0  0  0  0  0  0  0  0  0  0
    3.1410   -1.2575    0.0706 H   0  0  0  0  0  0  0  0  0  0  0  0
   -2.0318   -2.1828    0.0351 H   0  0  0  0  0  0  0  0  0  0  0  0
   -3.4634    0.1191   -0.0570 H   0  0  0  0  0  0  0  0  0  0  0  0
   -1.8118    2.0085   -0.0557 H   0  0  0  0  0  0  0  0  0  0  0  0
    0.9519    2.4213   -0.0658 H   0  0  0  0  0  0  0  0  0  0  0  0
    1.2364   -3.5527   -2.4195 H   0  0  0  0  0  0  0  0  0  0  0  0
    3.5684   -6.9827   -3.5031 H   0  0  0  0  0  0  0  0  0  0  0  0
    3.9225   -5.5036    0.3329 H   0  0  0  0  0  0  0  0  0  0  0  0
  1  2  1  0  0  0  0
  1  9  2  0  0  0  0
  1 20  1  0  0  0  0
  2  3  2  0  0  0  0
  2 21  1  0  0  0  0
  3  4  1  0  0  0  0
  3 10  1  0  0  0  0
  4  5  1  0  0  0  0
  4  8  2  0  0  0  0
  5  6  2  0  0  0  0
  5 22  1  0  0  0  0
  6  7  1  0  0  0  0
  6 23  1  0  0  0  0
  7  8  1  0  0  0  0
  7 24  1  0  0  0  0
  8  9  1  0  0  0  0
  9 25  1  0  0  0  0
 10 11  2  0  0  0  0
 10 12  1  0  0  0  0
 12 13  1  0  0  0  0
 13 14  1  0  0  0  0
 13 18  2  0  0  0  0
 14 15  2  0  0  0  0
 14 26  1  0  0  0  0
 15 16  1  0  0  0  0
 15 19  1  0  0  0  0
 16 17  2  0  0  0  0
 16 27  1  0  0  0  0
 17 18  1  0  0  0  0
 18 28  1  0  0  0  0
M  END
$$$$
