
 OpenBabel07202414153D

 56 59  0  0  1  0  0  0  0  0999 V2000
   10.7783    2.6344   -2.8574 C   0  0  0  0  0  0  0  0  0  0  0  0
   10.3580    2.9450   -1.5330 O   0  0  0  0  0  0  0  0  0  0  0  0
    9.1614    3.6001   -1.4105 C   0  0  0  0  0  0  0  0  0  0  0  0
    8.3649    4.0552   -2.4616 C   0  0  0  0  0  0  0  0  0  0  0  0
    7.1427    4.6939   -2.2109 C   0  0  0  0  0  0  0  0  0  0  0  0
    6.6793    4.9063   -0.9031 C   0  0  0  0  0  0  0  0  0  0  0  0
    5.3214    5.5440   -0.5771 C   0  0  2  0  0  0  0  0  0  0  0  0
    4.4286    4.5060    0.1295 C   0  0  0  0  0  0  0  0  0  0  0  0
    4.5634    5.9836   -1.7611 N   0  0  0  0  0  0  0  0  0  0  0  0
    4.8191    7.1870   -2.4185 C   0  0  0  0  0  0  0  0  0  0  0  0
    4.7678    7.1914   -3.8198 C   0  0  0  0  0  0  0  0  0  0  0  0
    5.1280    8.3210   -4.5451 C   0  0  0  0  0  0  0  0  0  0  0  0
    5.1371    8.2730   -6.2641 Cl  0  0  0  0  0  0  0  0  0  0  0  0
    5.4488    9.5007   -3.8901 C   0  0  0  0  0  0  0  0  0  0  0  0
    5.3223    9.5895   -2.4961 C   0  0  0  0  0  0  0  0  0  0  0  0
    5.3196   10.9942   -1.9195 C   0  0  0  0  0  0  0  0  0  0  0  0
    5.5635   11.1589   -0.4383 C   0  0  0  0  0  0  0  0  0  0  0  0
    4.7552   11.7385    0.2788 O   0  0  0  0  0  0  0  0  0  0  0  0
    6.7794   10.6441   -0.0442 N   0  0  0  0  0  0  0  0  0  0  0  0
    7.2863   10.5855    1.2730 C   0  0  0  0  0  0  0  0  0  0  0  0
    6.7474   11.3252    2.3262 C   0  0  0  0  0  0  0  0  0  0  0  0
    7.1610   11.2388    3.6125 N   0  0  0  0  0  0  0  0  0  0  0  0
    8.1942   10.4168    3.8520 C   0  0  0  0  0  0  0  0  0  0  0  0
    8.8877    9.6986    2.8710 C   0  0  0  0  0  0  0  0  0  0  0  0
   10.0365    8.9522    3.1835 C   0  0  0  0  0  0  0  0  0  0  0  0
   10.7171    8.2443    2.1962 C   0  0  0  0  0  0  0  0  0  0  0  0
   10.2221    8.2248    0.9031 C   0  0  0  0  0  0  0  0  0  0  0  0
    9.0818    8.9600    0.5831 C   0  0  0  0  0  0  0  0  0  0  0  0
    8.4046    9.7511    1.5456 C   0  0  0  0  0  0  0  0  0  0  0  0
    5.0397    8.4134   -1.7661 C   0  0  0  0  0  0  0  0  0  0  0  0
    7.5113    4.4698    0.1470 C   0  0  0  0  0  0  0  0  0  0  0  0
    8.7298    3.8209   -0.1034 C   0  0  0  0  0  0  0  0  0  0  0  0
   11.7255    2.0902   -2.7935 H   0  0  0  0  0  0  0  0  0  0  0  0
   10.9579    3.5472   -3.4352 H   0  0  0  0  0  0  0  0  0  0  0  0
   10.0549    1.9842   -3.3617 H   0  0  0  0  0  0  0  0  0  0  0  0
    8.6620    3.9204   -3.4957 H   0  0  0  0  0  0  0  0  0  0  0  0
    6.5668    5.0175   -3.0707 H   0  0  0  0  0  0  0  0  0  0  0  0
    5.4848    6.3833    0.1078 H   0  0  0  0  0  0  0  0  0  0  0  0
    4.2818    3.6162   -0.4969 H   0  0  0  0  0  0  0  0  0  0  0  0
    3.4377    4.9238    0.3400 H   0  0  0  0  0  0  0  0  0  0  0  0
    4.8567    4.1724    1.0801 H   0  0  0  0  0  0  0  0  0  0  0  0
    4.4102    5.2049   -2.3966 H   0  0  0  0  0  0  0  0  0  0  0  0
    4.4607    6.2975   -4.3560 H   0  0  0  0  0  0  0  0  0  0  0  0
    5.7265   10.3771   -4.4720 H   0  0  0  0  0  0  0  0  0  0  0  0
    4.3382   11.4324   -2.1410 H   0  0  0  0  0  0  0  0  0  0  0  0
    6.0721   11.6069   -2.4337 H   0  0  0  0  0  0  0  0  0  0  0  0
    7.2915   10.1459   -0.7572 H   0  0  0  0  0  0  0  0  0  0  0  0
    5.9599   12.0579    2.1786 H   0  0  0  0  0  0  0  0  0  0  0  0
    8.4747   10.3430    4.9022 H   0  0  0  0  0  0  0  0  0  0  0  0
   10.4273    8.9420    4.1987 H   0  0  0  0  0  0  0  0  0  0  0  0
   11.6275    7.7035    2.4398 H   0  0  0  0  0  0  0  0  0  0  0  0
   10.7409    7.6590    0.1359 H   0  0  0  0  0  0  0  0  0  0  0  0
    8.7403    8.8926   -0.4482 H   0  0  0  0  0  0  0  0  0  0  0  0
    4.9217    8.4597   -0.6850 H   0  0  0  0  0  0  0  0  0  0  0  0
    7.2129    4.6156    1.1841 H   0  0  0  0  0  0  0  0  0  0  0  0
    9.3385    3.4753    0.7298 H   0  0  0  0  0  0  0  0  0  0  0  0
  1  2  1  0  0  0  0
  1 33  1  0  0  0  0
  1 34  1  0  0  0  0
  1 35  1  0  0  0  0
  2  3  1  0  0  0  0
  3  4  1  0  0  0  0
  3 32  2  0  0  0  0
  4  5  2  0  0  0  0
  4 36  1  0  0  0  0
  5  6  1  0  0  0  0
  5 37  1  0  0  0  0
  6 31  2  0  0  0  0
  7  9  1  0  0  0  0
  7  8  1  0  0  0  0
  7  6  1  0  0  0  0
  7 38  1  1  0  0  0
  8 39  1  0  0  0  0
  8 40  1  0  0  0  0
  8 41  1  0  0  0  0
  9 10  1  0  0  0  0
  9 42  1  0  0  0  0
 10 11  1  0  0  0  0
 10 30  2  0  0  0  0
 11 12  2  0  0  0  0
 11 43  1  0  0  0  0
 12 13  1  0  0  0  0
 12 14  1  0  0  0  0
 14 15  2  0  0  0  0
 14 44  1  0  0  0  0
 15 16  1  0  0  0  0
 15 30  1  0  0  0  0
 16 17  1  0  0  0  0
 16 45  1  0  0  0  0
 16 46  1  0  0  0  0
 17 18  2  0  0  0  0
 17 19  1  0  0  0  0
 19 20  1  0  0  0  0
 19 47  1  0  0  0  0
 20 21  1  0  0  0  0
 20 29  2  0  0  0  0
 21 22  2  0  0  0  0
 21 48  1  0  0  0  0
 22 23  1  0  0  0  0
 23 24  2  0  0  0  0
 23 49  1  0  0  0  0
 24 25  1  0  0  0  0
 24 29  1  0  0  0  0
 25 26  2  0  0  0  0
 25 50  1  0  0  0  0
 26 27  1  0  0  0  0
 26 51  1  0  0  0  0
 27 28  2  0  0  0  0
 27 52  1  0  0  0  0
 28 29  1  0  0  0  0
 28 53  1  0  0  0  0
 30 54  1  0  0  0  0
 31 32  1  0  0  0  0
 31 55  1  0  0  0  0
 32 56  1  0  0  0  0
M  END
$$$$
