
 OpenBabel07202414203D

 38 40  0  0  1  0  0  0  0  0999 V2000
   -2.4382    0.8552    0.1557 C   0  0  0  0  0  0  0  0  0  0  0  0
   -2.5357   -0.5312    0.0813 C   0  0  0  0  0  0  0  0  0  0  0  0
   -1.3891   -1.3052   -0.0933 C   0  0  0  0  0  0  0  0  0  0  0  0
   -0.1257   -0.6995   -0.1645 C   0  0  0  0  0  0  0  0  0  0  0  0
   -0.0344    0.7065   -0.1363 C   0  0  0  0  0  0  0  0  0  0  0  0
   -1.1956    1.4746    0.0270 C   0  0  0  0  0  0  0  0  0  0  0  0
    1.2994    1.3785   -0.3675 C   0  0  0  0  0  0  0  0  0  0  0  0
    2.4228    0.6738    0.2445 N   0  0  0  0  0  0  0  0  0  0  0  0
    2.2968   -0.7675    0.4748 C   0  0  0  0  0  0  0  0  0  0  0  0
    1.1689   -1.4838   -0.3083 C   0  0  3  0  0  0  0  0  0  0  0  0
    1.1135   -2.9394    0.1468 C   0  0  0  0  0  0  0  0  0  0  0  0
    1.3301   -3.9735   -0.7708 C   0  0  0  0  0  0  0  0  0  0  0  0
    1.2902   -5.3023   -0.3503 C   0  0  0  0  0  0  0  0  0  0  0  0
    1.0515   -5.6086    0.9910 C   0  0  0  0  0  0  0  0  0  0  0  0
    0.8792   -4.5956    1.9346 C   0  0  0  0  0  0  0  0  0  0  0  0
    0.8525   -3.2710    1.4896 C   0  0  0  0  0  0  0  0  0  0  0  0
    0.5091   -4.9021    3.2476 N   0  0  0  0  0  0  0  0  0  0  0  0
    3.5299    1.4205    0.6365 C   0  0  0  0  0  0  0  0  0  0  0  0
    3.6013    2.6347    0.4294 O   0  0  0  0  0  0  0  0  0  0  0  0
    4.6707    0.7033    1.3412 C   0  0  0  0  0  0  0  0  0  0  0  0
    5.8442    0.1510    0.1306 Cl  0  0  0  0  0  0  0  0  0  0  0  0
   -3.3333    1.4554    0.2993 H   0  0  0  0  0  0  0  0  0  0  0  0
   -3.5064   -1.0142    0.1622 H   0  0  0  0  0  0  0  0  0  0  0  0
   -1.4975   -2.3856   -0.1576 H   0  0  0  0  0  0  0  0  0  0  0  0
   -1.1390    2.5607    0.0548 H   0  0  0  0  0  0  0  0  0  0  0  0
    1.2681    2.4110   -0.0024 H   0  0  0  0  0  0  0  0  0  0  0  0
    1.4919    1.4158   -1.4471 H   0  0  0  0  0  0  0  0  0  0  0  0
    2.1386   -0.8634    1.5574 H   0  0  0  0  0  0  0  0  0  0  0  0
    3.2539   -1.2520    0.2522 H   0  0  0  0  0  0  0  0  0  0  0  0
    1.4278   -1.4541   -1.3769 H   0  0  0  0  0  0  0  0  0  0  0  0
    1.5139   -3.7572   -1.8220 H   0  0  0  0  0  0  0  0  0  0  0  0
    1.4345   -6.1048   -1.0690 H   0  0  0  0  0  0  0  0  0  0  0  0
    1.0009   -6.6509    1.2949 H   0  0  0  0  0  0  0  0  0  0  0  0
    0.6196   -2.4838    2.2039 H   0  0  0  0  0  0  0  0  0  0  0  0
    0.8487   -5.8038    3.5686 H   0  0  0  0  0  0  0  0  0  0  0  0
    0.6959   -4.1613    3.9151 H   0  0  0  0  0  0  0  0  0  0  0  0
    4.3320   -0.1487    1.9342 H   0  0  0  0  0  0  0  0  0  0  0  0
    5.1690    1.4004    2.0206 H   0  0  0  0  0  0  0  0  0  0  0  0
  1  2  1  0  0  0  0
  1  6  2  0  0  0  0
  1 22  1  0  0  0  0
  2  3  2  0  0  0  0
  2 23  1  0  0  0  0
  3  4  1  0  0  0  0
  3 24  1  0  0  0  0
  4  5  2  0  0  0  0
  4 10  1  0  0  0  0
  5  6  1  0  0  0  0
  5  7  1  0  0  0  0
  6 25  1  0  0  0  0
  7  8  1  0  0  0  0
  7 26  1  0  0  0  0
  7 27  1  0  0  0  0
  8  9  1  0  0  0  0
  8 18  1  0  0  0  0
  9 10  1  0  0  0  0
  9 28  1  0  0  0  0
  9 29  1  0  0  0  0
 10 11  1  0  0  0  0
 10 30  1  0  0  0  0
 11 12  1  0  0  0  0
 11 16  2  0  0  0  0
 12 13  2  0  0  0  0
 12 31  1  0  0  0  0
 13 14  1  0  0  0  0
 13 32  1  0  0  0  0
 14 15  2  0  0  0  0
 14 33  1  0  0  0  0
 15 16  1  0  0  0  0
 15 17  1  0  0  0  0
 16 34  1  0  0  0  0
 17 35  1  0  0  0  0
 17 36  1  0  0  0  0
 18 19  2  0  0  0  0
 18 20  1  0  0  0  0
 20 21  1  0  0  0  0
 20 37  1  0  0  0  0
 20 38  1  0  0  0  0
M  END
$$$$
