
 OpenBabel07202414193D

 90 96  0  0  1  0  0  0  0  0999 V2000
    2.6732   -0.0691    1.1882 O   0  0  0  0  0  0  0  0  0  0  0  0
    2.1346    0.0783    0.0926 C   0  0  0  0  0  0  0  0  0  0  0  0
    0.5928    0.1055   -0.0531 C   0  0  0  0  0  0  0  0  0  0  0  0
    0.1201   -0.3680   -1.3897 N   0  0  0  0  0  0  0  0  0  0  0  0
    0.4949   -1.7826   -1.5533 C   0  0  0  0  0  0  0  0  0  0  0  0
   -0.0383   -2.3831   -2.8292 C   0  0  0  0  0  0  0  0  0  0  0  0
    0.6359   -3.5127   -3.3320 C   0  0  0  0  0  0  0  0  0  0  0  0
    0.2760   -4.0593   -4.5549 C   0  0  0  0  0  0  0  0  0  0  0  0
   -0.7258   -3.4429   -5.2975 C   0  0  0  0  0  0  0  0  0  0  0  0
   -1.1179   -4.0734   -6.8498 Cl  0  0  0  0  0  0  0  0  0  0  0  0
   -1.4173   -2.3273   -4.7999 C   0  0  0  0  0  0  0  0  0  0  0  0
   -1.1397   -1.8263   -3.5175 C   0  0  0  0  0  0  0  0  0  0  0  0
   -1.8956   -0.6201   -2.9301 C   0  0  1  0  0  0  0  0  0  0  0  0
   -3.4722   -0.6919   -2.8903 C   0  0  0  0  0  0  0  0  0  0  0  0
   -4.1401    0.3347   -2.8883 O   0  0  0  0  0  0  0  0  0  0  0  0
   -4.0140   -1.9620   -2.7750 N   0  0  0  0  0  0  0  0  0  0  0  0
   -5.3832   -2.3826   -2.8218 C   0  0  0  0  0  0  0  0  0  0  0  0
   -6.4788   -1.5338   -2.9781 C   0  0  0  0  0  0  0  0  0  0  0  0
   -7.6943   -1.9637   -3.4060 N   0  0  0  0  0  0  0  0  0  0  0  0
   -7.8579   -3.2972   -3.5365 C   0  0  0  0  0  0  0  0  0  0  0  0
   -6.9723   -4.2371   -3.0247 C   0  0  0  0  0  0  0  0  0  0  0  0
   -7.3461   -5.5791   -2.7769 C   0  0  0  0  0  0  0  0  0  0  0  0
   -6.4205   -6.4874   -2.2693 C   0  0  0  0  0  0  0  0  0  0  0  0
   -5.0998   -6.0933   -2.1225 C   0  0  0  0  0  0  0  0  0  0  0  0
   -4.7249   -4.7703   -2.3757 C   0  0  0  0  0  0  0  0  0  0  0  0
   -5.6662   -3.7823   -2.7457 C   0  0  0  0  0  0  0  0  0  0  0  0
   -1.3622   -0.2542   -1.5085 C   0  0  0  0  0  0  0  0  0  0  0  0
    2.8348    0.2499   -1.0784 N   0  0  0  0  0  0  0  0  0  0  0  0
    4.2882    0.2481   -1.1635 C   0  0  0  0  0  0  0  0  0  0  0  0
    4.9131   -1.0878   -0.7467 C   0  0  0  0  0  0  0  0  0  0  0  0
    6.4313   -1.0599   -0.8859 C   0  0  0  0  0  0  0  0  0  0  0  0
    7.0891   -2.3735   -0.4346 C   0  0  0  0  0  0  0  0  0  0  0  0
    8.6015   -2.2162   -0.5648 C   0  0  0  0  0  0  0  0  0  0  0  0
    9.3359   -3.3670   -0.1255 O   0  0  0  0  0  0  0  0  0  0  0  0
   10.6844   -3.2022   -0.3221 C   0  0  0  0  0  0  0  0  0  0  0  0
   11.3894   -2.0238   -0.2024 C   0  0  0  0  0  0  0  0  0  0  0  0
   12.7206   -1.9437   -0.6591 C   0  0  0  0  0  0  0  0  0  0  0  0
   13.2702   -2.9657   -1.4626 C   0  0  0  0  0  0  0  0  0  0  0  0
   12.5027   -4.1025   -1.6375 C   0  0  0  0  0  0  0  0  0  0  0  0
   11.3930   -4.2530   -0.8329 C   0  0  0  0  0  0  0  0  0  0  0  0
   11.0189   -5.6129   -0.9373 C   0  0  0  0  0  0  0  0  0  0  0  0
   10.8691   -6.3662    0.0035 O   0  0  0  0  0  0  0  0  0  0  0  0
   11.2350   -5.9330   -2.2271 N   0  0  0  0  0  0  0  0  0  0  0  0
   10.3823   -7.0200   -2.6706 C   0  0  2  0  0  0  0  0  0  0  0  0
   10.9839   -8.3993   -2.7275 C   0  0  0  0  0  0  0  0  0  0  0  0
   11.7816   -8.5156   -3.9985 C   0  0  0  0  0  0  0  0  0  0  0  0
   10.8919   -8.2505   -5.2056 C   0  0  0  0  0  0  0  0  0  0  0  0
   11.0738   -8.7813   -6.2747 O   0  0  0  0  0  0  0  0  0  0  0  0
    9.8630   -7.3500   -5.0310 N   0  0  0  0  0  0  0  0  0  0  0  0
    9.4915   -6.7364   -3.8691 C   0  0  0  0  0  0  0  0  0  0  0  0
    8.4972   -6.0161   -3.8091 O   0  0  0  0  0  0  0  0  0  0  0  0
   12.3530   -5.2439   -2.6256 C   0  0  0  0  0  0  0  0  0  0  0  0
   13.0546   -5.4150   -3.6142 O   0  0  0  0  0  0  0  0  0  0  0  0
    0.2852    1.1434    0.1140 H   0  0  0  0  0  0  0  0  0  0  0  0
    0.1729   -0.5172    0.7468 H   0  0  0  0  0  0  0  0  0  0  0  0
    0.1745   -2.3984   -0.7051 H   0  0  0  0  0  0  0  0  0  0  0  0
    1.5872   -1.8512   -1.6180 H   0  0  0  0  0  0  0  0  0  0  0  0
    1.4675   -3.9496   -2.7783 H   0  0  0  0  0  0  0  0  0  0  0  0
    0.8003   -4.9348   -4.9303 H   0  0  0  0  0  0  0  0  0  0  0  0
   -2.1505   -1.8362   -5.4369 H   0  0  0  0  0  0  0  0  0  0  0  0
   -1.6564    0.2172   -3.6018 H   0  0  0  0  0  0  0  0  0  0  0  0
   -3.3530   -2.7139   -2.8715 H   0  0  0  0  0  0  0  0  0  0  0  0
   -6.4323   -0.4635   -2.8126 H   0  0  0  0  0  0  0  0  0  0  0  0
   -8.7070   -3.6056   -4.1441 H   0  0  0  0  0  0  0  0  0  0  0  0
   -8.3783   -5.9018   -2.9012 H   0  0  0  0  0  0  0  0  0  0  0  0
   -6.7224   -7.4957   -1.9924 H   0  0  0  0  0  0  0  0  0  0  0  0
   -4.3523   -6.8027   -1.7787 H   0  0  0  0  0  0  0  0  0  0  0  0
   -3.6798   -4.5229   -2.2236 H   0  0  0  0  0  0  0  0  0  0  0  0
   -1.8508   -0.8821   -0.7502 H   0  0  0  0  0  0  0  0  0  0  0  0
   -1.6625    0.7801   -1.2963 H   0  0  0  0  0  0  0  0  0  0  0  0
    2.2724    0.3766   -1.9127 H   0  0  0  0  0  0  0  0  0  0  0  0
    4.6734    1.0656   -0.5426 H   0  0  0  0  0  0  0  0  0  0  0  0
    4.5437    0.4687   -2.2061 H   0  0  0  0  0  0  0  0  0  0  0  0
    4.5009   -1.8972   -1.3599 H   0  0  0  0  0  0  0  0  0  0  0  0
    4.6613   -1.3159    0.2944 H   0  0  0  0  0  0  0  0  0  0  0  0
    6.8331   -0.2324   -0.2858 H   0  0  0  0  0  0  0  0  0  0  0  0
    6.7027   -0.8519   -1.9287 H   0  0  0  0  0  0  0  0  0  0  0  0
    6.7233   -3.2220   -1.0247 H   0  0  0  0  0  0  0  0  0  0  0  0
    6.8364   -2.5871    0.6107 H   0  0  0  0  0  0  0  0  0  0  0  0
    8.8716   -1.3725    0.0724 H   0  0  0  0  0  0  0  0  0  0  0  0
    8.8478   -1.9886   -1.6118 H   0  0  0  0  0  0  0  0  0  0  0  0
   10.9228   -1.1484    0.2400 H   0  0  0  0  0  0  0  0  0  0  0  0
   13.2779   -1.0352   -0.4313 H   0  0  0  0  0  0  0  0  0  0  0  0
   14.2526   -2.8319   -1.9064 H   0  0  0  0  0  0  0  0  0  0  0  0
    9.6176   -7.1072   -1.8816 H   0  0  0  0  0  0  0  0  0  0  0  0
   10.1569   -9.1250   -2.7488 H   0  0  0  0  0  0  0  0  0  0  0  0
   11.5789   -8.6147   -1.8357 H   0  0  0  0  0  0  0  0  0  0  0  0
   12.1785   -9.5310   -4.0761 H   0  0  0  0  0  0  0  0  0  0  0  0
   12.6180   -7.8160   -4.0105 H   0  0  0  0  0  0  0  0  0  0  0  0
    9.2538   -7.2181   -5.8285 H   0  0  0  0  0  0  0  0  0  0  0  0
  1  2  2  0  0  0  0
  2  3  1  0  0  0  0
  2 28  1  0  0  0  0
  3  4  1  0  0  0  0
  3 54  1  0  0  0  0
  3 55  1  0  0  0  0
  4  5  1  0  0  0  0
  4 27  1  0  0  0  0
  5  6  1  0  0  0  0
  5 56  1  0  0  0  0
  5 57  1  0  0  0  0
  6  7  1  0  0  0  0
  6 12  2  0  0  0  0
  7  8  2  0  0  0  0
  7 58  1  0  0  0  0
  8  9  1  0  0  0  0
  8 59  1  0  0  0  0
  9 10  1  0  0  0  0
  9 11  2  0  0  0  0
 11 12  1  0  0  0  0
 11 60  1  0  0  0  0
 12 13  1  0  0  0  0
 13 27  1  0  0  0  0
 13 14  1  0  0  0  0
 13 61  1  6  0  0  0
 14 15  2  0  0  0  0
 14 16  1  0  0  0  0
 16 17  1  0  0  0  0
 16 62  1  0  0  0  0
 17 18  1  0  0  0  0
 17 26  2  0  0  0  0
 18 19  2  0  0  0  0
 18 63  1  0  0  0  0
 19 20  1  0  0  0  0
 20 21  2  0  0  0  0
 20 64  1  0  0  0  0
 21 22  1  0  0  0  0
 21 26  1  0  0  0  0
 22 23  2  0  0  0  0
 22 65  1  0  0  0  0
 23 24  1  0  0  0  0
 23 66  1  0  0  0  0
 24 25  2  0  0  0  0
 24 67  1  0  0  0  0
 25 26  1  0  0  0  0
 25 68  1  0  0  0  0
 27 69  1  0  0  0  0
 27 70  1  0  0  0  0
 28 29  1  0  0  0  0
 28 71  1  0  0  0  0
 29 30  1  0  0  0  0
 29 72  1  0  0  0  0
 29 73  1  0  0  0  0
 30 31  1  0  0  0  0
 30 74  1  0  0  0  0
 30 75  1  0  0  0  0
 31 32  1  0  0  0  0
 31 76  1  0  0  0  0
 31 77  1  0  0  0  0
 32 33  1  0  0  0  0
 32 78  1  0  0  0  0
 32 79  1  0  0  0  0
 33 34  1  0  0  0  0
 33 80  1  0  0  0  0
 33 81  1  0  0  0  0
 34 35  1  0  0  0  0
 35 36  1  0  0  0  0
 35 40  2  0  0  0  0
 36 37  2  0  0  0  0
 36 82  1  0  0  0  0
 37 38  1  0  0  0  0
 37 83  1  0  0  0  0
 38 39  2  0  0  0  0
 38 84  1  0  0  0  0
 39 40  1  0  0  0  0
 39 52  1  0  0  0  0
 40 41  1  0  0  0  0
 41 42  2  0  0  0  0
 41 43  1  0  0  0  0
 43 44  1  0  0  0  0
 43 52  1  0  0  0  0
 44 45  1  0  0  0  0
 44 50  1  0  0  0  0
 44 85  1  1  0  0  0
 45 46  1  0  0  0  0
 45 86  1  0  0  0  0
 45 87  1  0  0  0  0
 46 47  1  0  0  0  0
 46 88  1  0  0  0  0
 46 89  1  0  0  0  0
 47 48  2  0  0  0  0
 47 49  1  0  0  0  0
 49 50  1  0  0  0  0
 49 90  1  0  0  0  0
 50 51  2  0  0  0  0
 52 53  2  0  0  0  0
M  END
$$$$
