
 OpenBabel07202414123D

 49 52  0  0  0  0  0  0  0  0999 V2000
    1.0953    0.3145   -0.2075 C   0  0  0  0  0  0  0  0  0  0  0  0
    2.5768    0.2166   -0.4477 C   0  0  0  0  0  0  0  0  0  0  0  0
    3.3942    1.2786   -0.8572 C   0  0  0  0  0  0  0  0  0  0  0  0
    2.7237    3.0278   -1.1666 Br  0  0  0  0  0  0  0  0  0  0  0  0
    4.7629    1.0776   -1.0573 C   0  0  0  0  0  0  0  0  0  0  0  0
    5.3183   -0.1843   -0.8524 C   0  0  0  0  0  0  0  0  0  0  0  0
    6.6326   -0.3520   -1.0689 F   0  0  0  0  0  0  0  0  0  0  0  0
    4.5419   -1.2714   -0.4418 C   0  0  0  0  0  0  0  0  0  0  0  0
    5.1111   -2.5551   -0.3032 N   0  0  0  0  0  0  0  0  0  0  0  0
    4.5000   -3.8177   -0.4256 C   0  0  0  0  0  0  0  0  0  0  0  0
    3.4614   -4.0324   -1.3404 C   0  0  0  0  0  0  0  0  0  0  0  0
    2.7740   -5.2413   -1.3648 C   0  0  0  0  0  0  0  0  0  0  0  0
    1.4682   -5.4575   -2.4651 Cl  0  0  0  0  0  0  0  0  0  0  0  0
    3.1005   -6.2582   -0.4717 C   0  0  0  0  0  0  0  0  0  0  0  0
    4.1346   -6.0768    0.4576 C   0  0  0  0  0  0  0  0  0  0  0  0
    4.3793   -7.1345    1.5150 C   0  0  0  0  0  0  0  0  0  0  0  0
    5.7869   -7.6873    1.5349 C   0  0  0  0  0  0  0  0  0  0  0  0
    6.5877   -7.3647    2.4086 O   0  0  0  0  0  0  0  0  0  0  0  0
    6.0622   -8.5749    0.5086 N   0  0  0  0  0  0  0  0  0  0  0  0
    7.3454   -8.7531   -0.0775 C   0  0  0  0  0  0  0  0  0  0  0  0
    8.3508   -7.8096    0.1120 C   0  0  0  0  0  0  0  0  0  0  0  0
    9.2643   -7.5126   -0.8353 N   0  0  0  0  0  0  0  0  0  0  0  0
    9.2180   -8.2519   -1.9665 C   0  0  0  0  0  0  0  0  0  0  0  0
    8.4454   -9.3946   -2.1303 C   0  0  0  0  0  0  0  0  0  0  0  0
    8.5754  -10.2473   -3.2335 C   0  0  0  0  0  0  0  0  0  0  0  0
    7.8687  -11.4437   -3.2983 C   0  0  0  0  0  0  0  0  0  0  0  0
    6.9925  -11.7898   -2.2757 C   0  0  0  0  0  0  0  0  0  0  0  0
    6.7777  -10.9068   -1.2164 C   0  0  0  0  0  0  0  0  0  0  0  0
    7.4953   -9.6898   -1.1283 C   0  0  0  0  0  0  0  0  0  0  0  0
    4.8425   -4.8568    0.4567 C   0  0  0  0  0  0  0  0  0  0  0  0
    3.1724   -1.0442   -0.2403 C   0  0  0  0  0  0  0  0  0  0  0  0
    0.6732    1.2931   -0.4412 H   0  0  0  0  0  0  0  0  0  0  0  0
    0.8738    0.1001    0.8436 H   0  0  0  0  0  0  0  0  0  0  0  0
    0.5723   -0.4178   -0.8332 H   0  0  0  0  0  0  0  0  0  0  0  0
    5.4084    1.8889   -1.3804 H   0  0  0  0  0  0  0  0  0  0  0  0
    6.1165   -2.5614   -0.1527 H   0  0  0  0  0  0  0  0  0  0  0  0
    3.1861   -3.2482   -2.0412 H   0  0  0  0  0  0  0  0  0  0  0  0
    2.5197   -7.1773   -0.4798 H   0  0  0  0  0  0  0  0  0  0  0  0
    3.6844   -7.9728    1.3949 H   0  0  0  0  0  0  0  0  0  0  0  0
    4.1657   -6.6959    2.4966 H   0  0  0  0  0  0  0  0  0  0  0  0
    5.3026   -8.8175   -0.1197 H   0  0  0  0  0  0  0  0  0  0  0  0
    8.4021   -7.1758    0.9906 H   0  0  0  0  0  0  0  0  0  0  0  0
    9.8657   -7.8921   -2.7588 H   0  0  0  0  0  0  0  0  0  0  0  0
    9.2629   -9.9919   -4.0401 H   0  0  0  0  0  0  0  0  0  0  0  0
    8.0227  -12.1174   -4.1355 H   0  0  0  0  0  0  0  0  0  0  0  0
    6.4863  -12.7552   -2.3010 H   0  0  0  0  0  0  0  0  0  0  0  0
    6.1167  -11.2177   -0.4064 H   0  0  0  0  0  0  0  0  0  0  0  0
    5.6288   -4.6891    1.1929 H   0  0  0  0  0  0  0  0  0  0  0  0
    2.5448   -1.8630    0.1080 H   0  0  0  0  0  0  0  0  0  0  0  0
  1  2  1  0  0  0  0
  1 32  1  0  0  0  0
  1 33  1  0  0  0  0
  1 34  1  0  0  0  0
  2  3  2  0  0  0  0
  2 31  1  0  0  0  0
  3  4  1  0  0  0  0
  3  5  1  0  0  0  0
  5  6  2  0  0  0  0
  5 35  1  0  0  0  0
  6  7  1  0  0  0  0
  6  8  1  0  0  0  0
  8  9  1  0  0  0  0
  8 31  2  0  0  0  0
  9 10  1  0  0  0  0
  9 36  1  0  0  0  0
 10 11  2  0  0  0  0
 10 30  1  0  0  0  0
 11 12  1  0  0  0  0
 11 37  1  0  0  0  0
 12 13  1  0  0  0  0
 12 14  2  0  0  0  0
 14 15  1  0  0  0  0
 14 38  1  0  0  0  0
 15 16  1  0  0  0  0
 15 30  2  0  0  0  0
 16 17  1  0  0  0  0
 16 39  1  0  0  0  0
 16 40  1  0  0  0  0
 17 18  2  0  0  0  0
 17 19  1  0  0  0  0
 19 20  1  0  0  0  0
 19 41  1  0  0  0  0
 20 21  2  0  0  0  0
 20 29  1  0  0  0  0
 21 22  1  0  0  0  0
 21 42  1  0  0  0  0
 22 23  2  0  0  0  0
 23 24  1  0  0  0  0
 23 43  1  0  0  0  0
 24 25  2  0  0  0  0
 24 29  1  0  0  0  0
 25 26  1  0  0  0  0
 25 44  1  0  0  0  0
 26 27  2  0  0  0  0
 26 45  1  0  0  0  0
 27 28  1  0  0  0  0
 27 46  1  0  0  0  0
 28 29  2  0  0  0  0
 28 47  1  0  0  0  0
 30 48  1  0  0  0  0
 31 49  1  0  0  0  0
M  END
$$$$
