
 OpenBabel07202414133D

 50 53  0  0  0  0  0  0  0  0999 V2000
    1.3938    1.3546   -1.5625 C   0  0  0  0  0  0  0  0  0  0  0  0
    2.0328    0.8758   -0.2624 C   0  0  0  0  0  0  0  0  0  0  0  0
    2.8214    1.9990    0.3984 C   0  0  0  0  0  0  0  0  0  0  0  0
    2.8017    3.1335   -0.0647 O   0  0  0  0  0  0  0  0  0  0  0  0
    3.5335    1.5956    1.5224 N   0  0  0  0  0  0  0  0  0  0  0  0
    4.2753    2.4528    2.3772 C   0  0  0  0  0  0  0  0  0  0  0  0
    4.1335    3.8444    2.3695 C   0  0  0  0  0  0  0  0  0  0  0  0
    4.8696    4.6550    3.2429 C   0  0  0  0  0  0  0  0  0  0  0  0
    5.7592    4.0834    4.1469 C   0  0  0  0  0  0  0  0  0  0  0  0
    6.4488    4.9250    5.0650 N   0  0  0  0  0  0  0  0  0  0  0  0
    7.7781    5.3839    4.6281 C   0  0  0  0  0  0  0  0  0  0  0  0
    7.9124    6.8842    4.5951 C   0  0  0  0  0  0  0  0  0  0  0  0
    9.1040    7.5713    4.4232 C   0  0  0  0  0  0  0  0  0  0  0  0
    8.8432    9.2628    4.5130 S   0  0  0  0  0  0  0  0  0  0  0  0
    7.1764    8.9698    4.7732 C   0  0  0  0  0  0  0  0  0  0  0  0
    6.8052    7.7079    4.7901 N   0  0  0  0  0  0  0  0  0  0  0  0
    5.9015    5.0833    6.3402 C   0  0  0  0  0  0  0  0  0  0  0  0
    4.7986    4.6061    6.6459 O   0  0  0  0  0  0  0  0  0  0  0  0
    6.6735    5.8275    7.4207 C   0  0  0  0  0  0  0  0  0  0  0  0
    7.7188    4.9974    7.9810 N   0  0  0  0  0  0  0  0  0  0  0  0
    9.0049    5.3555    7.7755 N   0  0  0  0  0  0  0  0  0  0  0  0
    9.7128    4.2368    7.7039 N   0  0  0  0  0  0  0  0  0  0  0  0
    8.8809    3.1909    8.0011 C   0  0  0  0  0  0  0  0  0  0  0  0
    9.0984    1.8086    7.9658 C   0  0  0  0  0  0  0  0  0  0  0  0
    8.0523    0.9604    8.3509 C   0  0  0  0  0  0  0  0  0  0  0  0
    6.8284    1.4780    8.7853 C   0  0  0  0  0  0  0  0  0  0  0  0
    6.5775    2.8546    8.7759 C   0  0  0  0  0  0  0  0  0  0  0  0
    7.6227    3.6737    8.3370 C   0  0  0  0  0  0  0  0  0  0  0  0
    5.9195    2.6939    4.1673 C   0  0  0  0  0  0  0  0  0  0  0  0
    5.1723    1.8829    3.2925 C   0  0  0  0  0  0  0  0  0  0  0  0
    0.8004    0.5619   -2.0269 H   0  0  0  0  0  0  0  0  0  0  0  0
    2.1611    1.6714   -2.2781 H   0  0  0  0  0  0  0  0  0  0  0  0
    0.7350    2.2128   -1.3865 H   0  0  0  0  0  0  0  0  0  0  0  0
    2.6978    0.0312   -0.4708 H   0  0  0  0  0  0  0  0  0  0  0  0
    1.2484    0.5442    0.4266 H   0  0  0  0  0  0  0  0  0  0  0  0
    3.6008    0.6014    1.7015 H   0  0  0  0  0  0  0  0  0  0  0  0
    3.4215    4.3387    1.7146 H   0  0  0  0  0  0  0  0  0  0  0  0
    4.7160    5.7303    3.2259 H   0  0  0  0  0  0  0  0  0  0  0  0
    7.9967    4.9973    3.6244 H   0  0  0  0  0  0  0  0  0  0  0  0
    8.5254    4.9579    5.2993 H   0  0  0  0  0  0  0  0  0  0  0  0
   10.0968    7.1712    4.2715 H   0  0  0  0  0  0  0  0  0  0  0  0
    6.4773    9.7828    4.9229 H   0  0  0  0  0  0  0  0  0  0  0  0
    5.9933    6.1015    8.2344 H   0  0  0  0  0  0  0  0  0  0  0  0
    7.1161    6.7528    7.0564 H   0  0  0  0  0  0  0  0  0  0  0  0
   10.0475    1.4136    7.6230 H   0  0  0  0  0  0  0  0  0  0  0  0
    8.1952   -0.1167    8.3088 H   0  0  0  0  0  0  0  0  0  0  0  0
    6.0440    0.7969    9.1123 H   0  0  0  0  0  0  0  0  0  0  0  0
    5.6092    3.2528    9.0658 H   0  0  0  0  0  0  0  0  0  0  0  0
    6.6084    2.2322    4.8705 H   0  0  0  0  0  0  0  0  0  0  0  0
    5.3086    0.8059    3.3391 H   0  0  0  0  0  0  0  0  0  0  0  0
  1  2  1  0  0  0  0
  1 31  1  0  0  0  0
  1 32  1  0  0  0  0
  1 33  1  0  0  0  0
  2  3  1  0  0  0  0
  2 34  1  0  0  0  0
  2 35  1  0  0  0  0
  3  4  2  0  0  0  0
  3  5  1  0  0  0  0
  5  6  1  0  0  0  0
  5 36  1  0  0  0  0
  6  7  1  0  0  0  0
  6 30  2  0  0  0  0
  7  8  2  0  0  0  0
  7 37  1  0  0  0  0
  8  9  1  0  0  0  0
  8 38  1  0  0  0  0
  9 10  1  0  0  0  0
  9 29  2  0  0  0  0
 10 11  1  0  0  0  0
 10 17  1  0  0  0  0
 11 12  1  0  0  0  0
 11 39  1  0  0  0  0
 11 40  1  0  0  0  0
 12 13  2  0  0  0  0
 12 16  1  0  0  0  0
 13 14  1  0  0  0  0
 13 41  1  0  0  0  0
 14 15  1  0  0  0  0
 15 16  2  0  0  0  0
 15 42  1  0  0  0  0
 17 18  2  0  0  0  0
 17 19  1  0  0  0  0
 19 20  1  0  0  0  0
 19 43  1  0  0  0  0
 19 44  1  0  0  0  0
 20 21  1  0  0  0  0
 20 28  1  0  0  0  0
 21 22  2  0  0  0  0
 22 23  1  0  0  0  0
 23 24  1  0  0  0  0
 23 28  2  0  0  0  0
 24 25  2  0  0  0  0
 24 45  1  0  0  0  0
 25 26  1  0  0  0  0
 25 46  1  0  0  0  0
 26 27  2  0  0  0  0
 26 47  1  0  0  0  0
 27 28  1  0  0  0  0
 27 48  1  0  0  0  0
 29 30  1  0  0  0  0
 29 49  1  0  0  0  0
 30 50  1  0  0  0  0
M  END
$$$$
