
 OpenBabel07202414133D

 42 45  0  0  1  0  0  0  0  0999 V2000
    1.0306    0.0414    0.3226 C   0  0  0  0  0  0  0  0  0  0  0  0
    2.4205   -0.0623   -0.0857 N   0  0  0  0  0  0  0  0  0  0  0  0
    3.0715   -1.3692   -0.1237 C   0  0  0  0  0  0  0  0  0  0  0  0
    3.7450   -1.6179   -1.4700 C   0  0  3  0  0  0  0  0  0  0  0  0
    2.7058   -2.0263   -2.5188 C   0  0  0  0  0  0  0  0  0  0  0  0
    2.7465   -3.1485   -3.0132 O   0  0  0  0  0  0  0  0  0  0  0  0
    1.7730   -1.0490   -2.8180 N   0  0  0  0  0  0  0  0  0  0  0  0
    0.7494   -1.1014   -3.7964 C   0  0  0  0  0  0  0  0  0  0  0  0
    0.4011   -2.2827   -4.4538 C   0  0  0  0  0  0  0  0  0  0  0  0
   -0.4693   -2.3573   -5.4851 N   0  0  0  0  0  0  0  0  0  0  0  0
   -1.0456   -1.2001   -5.8674 C   0  0  0  0  0  0  0  0  0  0  0  0
   -0.8629    0.0252   -5.2328 C   0  0  0  0  0  0  0  0  0  0  0  0
   -1.5728    1.1640   -5.6463 C   0  0  0  0  0  0  0  0  0  0  0  0
   -1.4091    2.3863   -4.9981 C   0  0  0  0  0  0  0  0  0  0  0  0
   -0.5102    2.4834   -3.9411 C   0  0  0  0  0  0  0  0  0  0  0  0
    0.2145    1.3627   -3.5373 C   0  0  0  0  0  0  0  0  0  0  0  0
    0.0570    0.0942   -4.1562 C   0  0  0  0  0  0  0  0  0  0  0  0
    4.5806   -0.4171   -1.8724 C   0  0  0  0  0  0  0  0  0  0  0  0
    5.6258   -0.5613   -2.7983 C   0  0  0  0  0  0  0  0  0  0  0  0
    6.3751    0.5508   -3.1875 C   0  0  0  0  0  0  0  0  0  0  0  0
    7.6404    0.3670   -4.3379 Cl  0  0  0  0  0  0  0  0  0  0  0  0
    6.0984    1.8120   -2.6627 C   0  0  0  0  0  0  0  0  0  0  0  0
    5.0593    1.9690   -1.7436 C   0  0  0  0  0  0  0  0  0  0  0  0
    4.2994    0.8613   -1.3473 C   0  0  0  0  0  0  0  0  0  0  0  0
    3.0960    1.0816   -0.4899 C   0  0  0  0  0  0  0  0  0  0  0  0
    2.6715    2.2157   -0.3039 O   0  0  0  0  0  0  0  0  0  0  0  0
    0.6418   -0.9234    0.6555 H   0  0  0  0  0  0  0  0  0  0  0  0
    0.4530    0.3741   -0.5460 H   0  0  0  0  0  0  0  0  0  0  0  0
    0.9256    0.7888    1.1115 H   0  0  0  0  0  0  0  0  0  0  0  0
    2.3521   -2.1601    0.1139 H   0  0  0  0  0  0  0  0  0  0  0  0
    3.8293   -1.3611    0.6710 H   0  0  0  0  0  0  0  0  0  0  0  0
    4.4193   -2.4770   -1.3437 H   0  0  0  0  0  0  0  0  0  0  0  0
    1.9185   -0.1514   -2.3797 H   0  0  0  0  0  0  0  0  0  0  0  0
    0.8031   -3.2479   -4.1631 H   0  0  0  0  0  0  0  0  0  0  0  0
   -1.6909   -1.2939   -6.7402 H   0  0  0  0  0  0  0  0  0  0  0  0
   -2.2794    1.1034   -6.4724 H   0  0  0  0  0  0  0  0  0  0  0  0
   -1.9802    3.2545   -5.3110 H   0  0  0  0  0  0  0  0  0  0  0  0
   -0.3745    3.4334   -3.4303 H   0  0  0  0  0  0  0  0  0  0  0  0
    0.8963    1.5097   -2.7039 H   0  0  0  0  0  0  0  0  0  0  0  0
    5.8494   -1.5370   -3.2275 H   0  0  0  0  0  0  0  0  0  0  0  0
    6.6724    2.6794   -2.9796 H   0  0  0  0  0  0  0  0  0  0  0  0
    4.8265    2.9613   -1.3604 H   0  0  0  0  0  0  0  0  0  0  0  0
  1  2  1  0  0  0  0
  1 27  1  0  0  0  0
  1 28  1  0  0  0  0
  1 29  1  0  0  0  0
  2  3  1  0  0  0  0
  2 25  1  0  0  0  0
  3  4  1  0  0  0  0
  3 30  1  0  0  0  0
  3 31  1  0  0  0  0
  4  5  1  0  0  0  0
  4 18  1  0  0  0  0
  4 32  1  0  0  0  0
  5  6  2  0  0  0  0
  5  7  1  0  0  0  0
  7  8  1  0  0  0  0
  7 33  1  0  0  0  0
  8  9  1  0  0  0  0
  8 17  2  0  0  0  0
  9 10  2  0  0  0  0
  9 34  1  0  0  0  0
 10 11  1  0  0  0  0
 11 12  2  0  0  0  0
 11 35  1  0  0  0  0
 12 13  1  0  0  0  0
 12 17  1  0  0  0  0
 13 14  2  0  0  0  0
 13 36  1  0  0  0  0
 14 15  1  0  0  0  0
 14 37  1  0  0  0  0
 15 16  2  0  0  0  0
 15 38  1  0  0  0  0
 16 17  1  0  0  0  0
 16 39  1  0  0  0  0
 18 19  1  0  0  0  0
 18 24  2  0  0  0  0
 19 20  2  0  0  0  0
 19 40  1  0  0  0  0
 20 21  1  0  0  0  0
 20 22  1  0  0  0  0
 22 23  2  0  0  0  0
 22 41  1  0  0  0  0
 23 24  1  0  0  0  0
 23 42  1  0  0  0  0
 24 25  1  0  0  0  0
 25 26  2  0  0  0  0
M  END
$$$$
