
 OpenBabel07202414163D

 46 49  0  0  0  0  0  0  0  0999 V2000
   -2.1338   -0.2084    0.1538 Cl  0  0  0  0  0  0  0  0  0  0  0  0
   -0.4174   -0.1044    0.1001 C   0  0  0  0  0  0  0  0  0  0  0  0
    0.2009    1.1407    0.0182 C   0  0  0  0  0  0  0  0  0  0  0  0
    1.5981    1.2276   -0.0474 C   0  0  0  0  0  0  0  0  0  0  0  0
    2.2797    2.5744   -0.0928 C   0  0  0  0  0  0  0  0  0  0  0  0
    3.1770    2.8124   -1.2955 C   0  0  0  0  0  0  0  0  0  0  0  0
    4.2685    3.3629   -1.1588 O   0  0  0  0  0  0  0  0  0  0  0  0
    2.6252    2.4813   -2.5189 N   0  0  0  0  0  0  0  0  0  0  0  0
    3.3216    2.6685   -3.7419 C   0  0  0  0  0  0  0  0  0  0  0  0
    4.6636    2.3005   -3.8643 C   0  0  0  0  0  0  0  0  0  0  0  0
    5.3842    2.3957   -5.0042 N   0  0  0  0  0  0  0  0  0  0  0  0
    4.7386    2.9163   -6.0707 C   0  0  0  0  0  0  0  0  0  0  0  0
    3.4106    3.3390   -6.0716 C   0  0  0  0  0  0  0  0  0  0  0  0
    2.8212    3.9148   -7.2095 C   0  0  0  0  0  0  0  0  0  0  0  0
    1.5061    4.3765   -7.1737 C   0  0  0  0  0  0  0  0  0  0  0  0
    0.7666    4.2666   -6.0033 C   0  0  0  0  0  0  0  0  0  0  0  0
    1.3368    3.6881   -4.8702 C   0  0  0  0  0  0  0  0  0  0  0  0
    2.6691    3.2042   -4.8706 C   0  0  0  0  0  0  0  0  0  0  0  0
    2.3558    0.0441   -0.0321 C   0  0  0  0  0  0  0  0  0  0  0  0
    1.7353   -1.2119    0.0170 C   0  0  0  0  0  0  0  0  0  0  0  0
    2.5413   -2.3761   -0.0024 N   0  0  0  0  0  0  0  0  0  0  0  0
    2.1364   -3.6730   -0.4387 C   0  0  0  0  0  0  0  0  0  0  0  0
    1.4323   -3.8974   -1.6422 C   0  0  0  0  0  0  0  0  0  0  0  0
    1.1310   -2.5502   -2.9578 Br  0  0  0  0  0  0  0  0  0  0  0  0
    0.9715   -5.1786   -1.9755 C   0  0  0  0  0  0  0  0  0  0  0  0
    1.2624   -6.2593   -1.1527 C   0  0  0  0  0  0  0  0  0  0  0  0
    0.6910   -7.8249   -1.5744 Cl  0  0  0  0  0  0  0  0  0  0  0  0
    2.0273   -6.0867   -0.0043 C   0  0  0  0  0  0  0  0  0  0  0  0
    2.4583   -4.8040    0.3439 C   0  0  0  0  0  0  0  0  0  0  0  0
    3.3989   -4.6381    1.7900 Cl  0  0  0  0  0  0  0  0  0  0  0  0
    0.3411   -1.2723    0.1222 C   0  0  0  0  0  0  0  0  0  0  0  0
   -0.4117    2.0397    0.0191 H   0  0  0  0  0  0  0  0  0  0  0  0
    2.8983    2.6638    0.8085 H   0  0  0  0  0  0  0  0  0  0  0  0
    1.5446    3.3872   -0.0575 H   0  0  0  0  0  0  0  0  0  0  0  0
    1.6210    2.3735   -2.5644 H   0  0  0  0  0  0  0  0  0  0  0  0
    5.2101    1.8650   -3.0297 H   0  0  0  0  0  0  0  0  0  0  0  0
    5.3549    2.9937   -6.9670 H   0  0  0  0  0  0  0  0  0  0  0  0
    3.3905    4.0216   -8.1308 H   0  0  0  0  0  0  0  0  0  0  0  0
    1.0659    4.8347   -8.0566 H   0  0  0  0  0  0  0  0  0  0  0  0
   -0.2517    4.6462   -5.9654 H   0  0  0  0  0  0  0  0  0  0  0  0
    0.7333    3.6582   -3.9649 H   0  0  0  0  0  0  0  0  0  0  0  0
    3.4426    0.0949   -0.0928 H   0  0  0  0  0  0  0  0  0  0  0  0
    3.0511   -2.4442    0.8832 H   0  0  0  0  0  0  0  0  0  0  0  0
    0.3973   -5.3323   -2.8868 H   0  0  0  0  0  0  0  0  0  0  0  0
    2.2786   -6.9417    0.6166 H   0  0  0  0  0  0  0  0  0  0  0  0
   -0.1636   -2.2303    0.1964 H   0  0  0  0  0  0  0  0  0  0  0  0
  1  2  1  0  0  0  0
  2  3  2  0  0  0  0
  2 31  1  0  0  0  0
  3  4  1  0  0  0  0
  3 32  1  0  0  0  0
  4  5  1  0  0  0  0
  4 19  2  0  0  0  0
  5  6  1  0  0  0  0
  5 33  1  0  0  0  0
  5 34  1  0  0  0  0
  6  7  2  0  0  0  0
  6  8  1  0  0  0  0
  8  9  1  0  0  0  0
  8 35  1  0  0  0  0
  9 10  2  0  0  0  0
  9 18  1  0  0  0  0
 10 11  1  0  0  0  0
 10 36  1  0  0  0  0
 11 12  2  0  0  0  0
 12 13  1  0  0  0  0
 12 37  1  0  0  0  0
 13 14  2  0  0  0  0
 13 18  1  0  0  0  0
 14 15  1  0  0  0  0
 14 38  1  0  0  0  0
 15 16  2  0  0  0  0
 15 39  1  0  0  0  0
 16 17  1  0  0  0  0
 16 40  1  0  0  0  0
 17 18  2  0  0  0  0
 17 41  1  0  0  0  0
 19 20  1  0  0  0  0
 19 42  1  0  0  0  0
 20 21  1  0  0  0  0
 20 31  2  0  0  0  0
 21 22  1  0  0  0  0
 21 43  1  0  0  0  0
 22 23  2  0  0  0  0
 22 29  1  0  0  0  0
 23 24  1  0  0  0  0
 23 25  1  0  0  0  0
 25 26  2  0  0  0  0
 25 44  1  0  0  0  0
 26 27  1  0  0  0  0
 26 28  1  0  0  0  0
 28 29  2  0  0  0  0
 28 45  1  0  0  0  0
 29 30  1  0  0  0  0
 31 46  1  0  0  0  0
M  END
$$$$
