
 OpenBabel07202414113D

 77 82  0  0  1  0  0  0  0  0999 V2000
    2.5650   -0.9300   -2.6101 C   0  0  0  0  0  0  0  0  0  0  0  0
    2.4612   -0.6027   -1.3032 C   0  0  0  0  0  0  0  0  0  0  0  0
    2.8186   -1.6397   -0.2555 C   0  0  0  0  0  0  0  0  0  0  0  0
    1.8508   -2.7490    0.0180 N   0  0  0  0  0  0  0  0  0  0  0  0
    0.4732   -2.5033   -0.3178 C   0  0  0  0  0  0  0  0  0  0  0  0
    0.1405   -1.5544   -1.0452 O   0  0  0  0  0  0  0  0  0  0  0  0
   -0.7186   -3.3221    0.2109 C   0  0  2  0  0  0  0  0  0  0  0  0
   -1.3681   -4.1672   -0.9304 C   0  0  0  0  0  0  0  0  0  0  0  0
   -2.5611   -3.5847   -1.5690 N   0  0  0  0  0  0  0  0  0  0  0  0
   -2.7559   -3.3545   -3.0314 C   0  0  0  0  0  0  0  0  0  0  0  0
   -2.1337   -4.1360   -4.2121 C   0  0  0  0  0  0  0  0  0  0  0  0
   -1.2310   -4.9553   -4.0656 O   0  0  0  0  0  0  0  0  0  0  0  0
   -2.5798   -3.8657   -5.4915 N   0  0  0  0  0  0  0  0  0  0  0  0
   -3.6361   -2.9868   -5.9860 C   0  0  0  0  0  0  0  0  0  0  0  0
   -3.5461   -3.0411   -0.7507 C   0  0  0  0  0  0  0  0  0  0  0  0
   -4.7057   -2.8735   -1.1188 O   0  0  0  0  0  0  0  0  0  0  0  0
   -3.1093   -2.5030    0.5677 C   0  0  0  0  0  0  0  0  0  0  0  0
   -4.0744   -1.8676    1.3647 C   0  0  0  0  0  0  0  0  0  0  0  0
   -3.6979   -1.1584    2.5048 C   0  0  0  0  0  0  0  0  0  0  0  0
   -2.3521   -1.0734    2.8456 C   0  0  0  0  0  0  0  0  0  0  0  0
   -1.8785   -0.1417    4.2123 Cl  0  0  0  0  0  0  0  0  0  0  0  0
   -1.3865   -1.7416    2.0888 C   0  0  0  0  0  0  0  0  0  0  0  0
   -1.7574   -2.4819    0.9472 C   0  0  0  0  0  0  0  0  0  0  0  0
    2.3736   -3.8926    0.8429 C   0  0  0  0  0  0  0  0  0  0  0  0
    1.6019   -5.0397    0.9837 C   0  0  0  0  0  0  0  0  0  0  0  0
    1.6748   -5.9387    1.9899 N   0  0  0  0  0  0  0  0  0  0  0  0
    2.6836   -5.7783    2.8566 C   0  0  0  0  0  0  0  0  0  0  0  0
    3.7235   -4.8851    2.6590 C   0  0  0  0  0  0  0  0  0  0  0  0
    4.8468   -4.9795    3.5082 C   0  0  0  0  0  0  0  0  0  0  0  0
    5.9928   -4.2419    3.2582 C   0  0  0  0  0  0  0  0  0  0  0  0
    6.0195   -3.4160    2.1516 C   0  0  0  0  0  0  0  0  0  0  0  0
    4.8753   -3.2729    1.3449 C   0  0  0  0  0  0  0  0  0  0  0  0
    3.6385   -3.9580    1.5760 C   0  0  0  0  0  0  0  0  0  0  0  0
    2.0592    0.7922   -0.8170 C   0  0  0  0  0  0  0  0  0  0  0  0
    2.4672    1.2214    0.2598 O   0  0  0  0  0  0  0  0  0  0  0  0
    1.2075    1.4494   -1.6946 N   0  0  0  0  0  0  0  0  0  0  0  0
    0.5920    2.7255   -1.6270 C   0  0  0  0  0  0  0  0  0  0  0  0
    0.6744    3.6378   -0.5734 C   0  0  0  0  0  0  0  0  0  0  0  0
   -0.1170    4.8180   -0.5779 C   0  0  0  0  0  0  0  0  0  0  0  0
   -0.9868    5.0957   -1.6449 C   0  0  0  0  0  0  0  0  0  0  0  0
   -1.9663    6.1378   -1.5996 N   0  0  0  0  0  0  0  0  0  0  0  0
   -2.3196    6.9392   -0.5306 C   0  0  0  0  0  0  0  0  0  0  0  0
   -3.4811    7.5932   -0.8726 C   0  0  0  0  0  0  0  0  0  0  0  0
   -3.7228    7.2052   -2.1984 C   0  0  0  0  0  0  0  0  0  0  0  0
   -2.8020    6.3578   -2.6587 N   0  0  0  0  0  0  0  0  0  0  0  0
   -0.9691    4.2458   -2.7532 C   0  0  0  0  0  0  0  0  0  0  0  0
   -0.2038    3.0735   -2.7300 C   0  0  0  0  0  0  0  0  0  0  0  0
    2.8498   -1.9420   -2.8960 H   0  0  0  0  0  0  0  0  0  0  0  0
    2.3426   -0.2561   -3.4264 H   0  0  0  0  0  0  0  0  0  0  0  0
    3.1120   -1.1790    0.6934 H   0  0  0  0  0  0  0  0  0  0  0  0
    3.6898   -2.1364   -0.6919 H   0  0  0  0  0  0  0  0  0  0  0  0
   -0.4048   -3.9903    1.0068 H   0  0  0  0  0  0  0  0  0  0  0  0
   -1.7631   -5.0675   -0.4309 H   0  0  0  0  0  0  0  0  0  0  0  0
   -0.6449   -4.5244   -1.6668 H   0  0  0  0  0  0  0  0  0  0  0  0
   -2.4743   -2.3074   -3.1863 H   0  0  0  0  0  0  0  0  0  0  0  0
   -3.8386   -3.4215   -3.2081 H   0  0  0  0  0  0  0  0  0  0  0  0
   -2.1225   -4.4337   -6.1928 H   0  0  0  0  0  0  0  0  0  0  0  0
   -3.9019   -2.2013   -5.2787 H   0  0  0  0  0  0  0  0  0  0  0  0
   -4.5156   -3.5914   -6.2324 H   0  0  0  0  0  0  0  0  0  0  0  0
   -3.2855   -2.5320   -6.9219 H   0  0  0  0  0  0  0  0  0  0  0  0
   -5.1243   -1.8983    1.0784 H   0  0  0  0  0  0  0  0  0  0  0  0
   -4.4555   -0.6559    3.1000 H   0  0  0  0  0  0  0  0  0  0  0  0
   -0.3428   -1.6797    2.3919 H   0  0  0  0  0  0  0  0  0  0  0  0
    0.8493   -5.3134    0.2554 H   0  0  0  0  0  0  0  0  0  0  0  0
    2.6710   -6.4643    3.6989 H   0  0  0  0  0  0  0  0  0  0  0  0
    4.8570   -5.6766    4.3460 H   0  0  0  0  0  0  0  0  0  0  0  0
    6.8702   -4.3492    3.8906 H   0  0  0  0  0  0  0  0  0  0  0  0
    6.9355   -2.8886    1.8930 H   0  0  0  0  0  0  0  0  0  0  0  0
    5.0437   -2.6721    0.4627 H   0  0  0  0  0  0  0  0  0  0  0  0
    0.8787    0.8789   -2.4621 H   0  0  0  0  0  0  0  0  0  0  0  0
    1.3052    3.4375    0.2895 H   0  0  0  0  0  0  0  0  0  0  0  0
   -0.0478    5.4851    0.2780 H   0  0  0  0  0  0  0  0  0  0  0  0
   -1.7694    6.9287    0.3957 H   0  0  0  0  0  0  0  0  0  0  0  0
   -4.0762    8.2446   -0.2532 H   0  0  0  0  0  0  0  0  0  0  0  0
   -4.5392    7.4982   -2.8469 H   0  0  0  0  0  0  0  0  0  0  0  0
   -1.5944    4.4449   -3.6226 H   0  0  0  0  0  0  0  0  0  0  0  0
   -0.2692    2.4136   -3.5911 H   0  0  0  0  0  0  0  0  0  0  0  0
  1  2  2  0  0  0  0
  1 48  1  0  0  0  0
  1 49  1  0  0  0  0
  2  3  1  0  0  0  0
  2 34  1  0  0  0  0
  3  4  1  0  0  0  0
  3 50  1  0  0  0  0
  3 51  1  0  0  0  0
  4  5  1  0  0  0  0
  4 24  1  0  0  0  0
  5  6  2  0  0  0  0
  5  7  1  0  0  0  0
  7  8  1  0  0  0  0
  7 23  1  0  0  0  0
  7 52  1  1  0  0  0
  8  9  1  0  0  0  0
  8 53  1  0  0  0  0
  8 54  1  0  0  0  0
  9 10  1  0  0  0  0
  9 15  1  0  0  0  0
 10 11  1  0  0  0  0
 10 55  1  0  0  0  0
 10 56  1  0  0  0  0
 11 12  2  0  0  0  0
 11 13  1  0  0  0  0
 13 14  1  0  0  0  0
 13 57  1  0  0  0  0
 14 58  1  0  0  0  0
 14 59  1  0  0  0  0
 14 60  1  0  0  0  0
 15 16  2  0  0  0  0
 15 17  1  0  0  0  0
 17 18  1  0  0  0  0
 17 23  2  0  0  0  0
 18 19  2  0  0  0  0
 18 61  1  0  0  0  0
 19 20  1  0  0  0  0
 19 62  1  0  0  0  0
 20 21  1  0  0  0  0
 20 22  2  0  0  0  0
 22 23  1  0  0  0  0
 22 63  1  0  0  0  0
 24 25  1  0  0  0  0
 24 33  2  0  0  0  0
 25 26  2  0  0  0  0
 25 64  1  0  0  0  0
 26 27  1  0  0  0  0
 27 28  2  0  0  0  0
 27 65  1  0  0  0  0
 28 29  1  0  0  0  0
 28 33  1  0  0  0  0
 29 30  2  0  0  0  0
 29 66  1  0  0  0  0
 30 31  1  0  0  0  0
 30 67  1  0  0  0  0
 31 32  2  0  0  0  0
 31 68  1  0  0  0  0
 32 33  1  0  0  0  0
 32 69  1  0  0  0  0
 34 35  2  0  0  0  0
 34 36  1  0  0  0  0
 36 37  1  0  0  0  0
 36 70  1  0  0  0  0
 37 38  1  0  0  0  0
 37 47  2  0  0  0  0
 38 39  2  0  0  0  0
 38 71  1  0  0  0  0
 39 40  1  0  0  0  0
 39 72  1  0  0  0  0
 40 41  1  0  0  0  0
 40 46  2  0  0  0  0
 41 42  1  0  0  0  0
 41 45  1  0  0  0  0
 42 43  2  0  0  0  0
 42 73  1  0  0  0  0
 43 44  1  0  0  0  0
 43 74  1  0  0  0  0
 44 45  2  0  0  0  0
 44 75  1  0  0  0  0
 46 47  1  0  0  0  0
 46 76  1  0  0  0  0
 47 77  1  0  0  0  0
M  END
$$$$
