
 OpenBabel07202414173D

 36 39  0  0  0  0  0  0  0  0999 V2000
    1.0702    0.2816    1.5074 Cl  0  0  0  0  0  0  0  0  0  0  0  0
    2.7666    0.0725    1.2574 C   0  0  0  0  0  0  0  0  0  0  0  0
    3.5193    1.1953    0.9058 C   0  0  0  0  0  0  0  0  0  0  0  0
    4.8900    1.1255    0.6952 C   0  0  0  0  0  0  0  0  0  0  0  0
    5.5311    2.2602    0.3801 N   0  0  0  0  0  0  0  0  0  0  0  0
    6.8589    2.2188    0.1508 C   0  0  0  0  0  0  0  0  0  0  0  0
    7.6114    1.0669    0.2192 C   0  0  0  0  0  0  0  0  0  0  0  0
    6.9507   -0.1164    0.5495 C   0  0  0  0  0  0  0  0  0  0  0  0
    7.7082   -1.3975    0.4769 C   0  0  0  0  0  0  0  0  0  0  0  0
    7.1519   -2.3429   -0.0671 O   0  0  0  0  0  0  0  0  0  0  0  0
    8.9776   -1.4158    1.0407 N   0  0  0  0  0  0  0  0  0  0  0  0
    9.8265   -2.5663    1.1173 C   0  0  0  0  0  0  0  0  0  0  0  0
    9.5372   -3.7505    0.4289 C   0  0  0  0  0  0  0  0  0  0  0  0
   10.2551   -4.8936    0.5005 N   0  0  0  0  0  0  0  0  0  0  0  0
   11.3335   -4.8717    1.3032 C   0  0  0  0  0  0  0  0  0  0  0  0
   11.7632   -3.7552    2.0119 C   0  0  0  0  0  0  0  0  0  0  0  0
   12.9236   -3.8306    2.8003 C   0  0  0  0  0  0  0  0  0  0  0  0
   13.3729   -2.7211    3.5069 C   0  0  0  0  0  0  0  0  0  0  0  0
   12.6637   -1.5297    3.4342 C   0  0  0  0  0  0  0  0  0  0  0  0
   11.5004   -1.4464    2.6578 C   0  0  0  0  0  0  0  0  0  0  0  0
   11.0076   -2.5559    1.9208 C   0  0  0  0  0  0  0  0  0  0  0  0
    5.5490   -0.1149    0.8138 C   0  0  0  0  0  0  0  0  0  0  0  0
    4.7742   -1.2487    1.1848 C   0  0  0  0  0  0  0  0  0  0  0  0
    3.3977   -1.1579    1.4036 C   0  0  0  0  0  0  0  0  0  0  0  0
    2.5495   -2.5926    1.8537 Cl  0  0  0  0  0  0  0  0  0  0  0  0
    3.0253    2.1584    0.7901 H   0  0  0  0  0  0  0  0  0  0  0  0
    7.3061    3.1713   -0.1222 H   0  0  0  0  0  0  0  0  0  0  0  0
    8.6649    1.0954   -0.0331 H   0  0  0  0  0  0  0  0  0  0  0  0
    9.2828   -0.5926    1.5382 H   0  0  0  0  0  0  0  0  0  0  0  0
    8.6966   -3.8440   -0.2486 H   0  0  0  0  0  0  0  0  0  0  0  0
   11.8677   -5.8172    1.3534 H   0  0  0  0  0  0  0  0  0  0  0  0
   13.4873   -4.7600    2.8661 H   0  0  0  0  0  0  0  0  0  0  0  0
   14.2752   -2.7900    4.1096 H   0  0  0  0  0  0  0  0  0  0  0  0
   13.0160   -0.6592    3.9835 H   0  0  0  0  0  0  0  0  0  0  0  0
   10.9901   -0.4886    2.6423 H   0  0  0  0  0  0  0  0  0  0  0  0
    5.2466   -2.2228    1.3038 H   0  0  0  0  0  0  0  0  0  0  0  0
  1  2  1  0  0  0  0
  2  3  1  0  0  0  0
  2 24  2  0  0  0  0
  3  4  2  0  0  0  0
  3 26  1  0  0  0  0
  4  5  1  0  0  0  0
  4 22  1  0  0  0  0
  5  6  2  0  0  0  0
  6  7  1  0  0  0  0
  6 27  1  0  0  0  0
  7  8  2  0  0  0  0
  7 28  1  0  0  0  0
  8  9  1  0  0  0  0
  8 22  1  0  0  0  0
  9 10  2  0  0  0  0
  9 11  1  0  0  0  0
 11 12  1  0  0  0  0
 11 29  1  0  0  0  0
 12 13  1  0  0  0  0
 12 21  2  0  0  0  0
 13 14  2  0  0  0  0
 13 30  1  0  0  0  0
 14 15  1  0  0  0  0
 15 16  2  0  0  0  0
 15 31  1  0  0  0  0
 16 17  1  0  0  0  0
 16 21  1  0  0  0  0
 17 18  2  0  0  0  0
 17 32  1  0  0  0  0
 18 19  1  0  0  0  0
 18 33  1  0  0  0  0
 19 20  2  0  0  0  0
 19 34  1  0  0  0  0
 20 21  1  0  0  0  0
 20 35  1  0  0  0  0
 22 23  2  0  0  0  0
 23 24  1  0  0  0  0
 23 36  1  0  0  0  0
 24 25  1  0  0  0  0
M  END
$$$$
