
 OpenBabel07202414143D

 53 56  0  0  1  0  0  0  0  0999 V2000
    7.9331   -0.7156    0.7572 C   0  0  0  0  0  0  0  0  0  0  0  0
    6.7685   -0.7632   -0.0892 N   0  0  0  0  0  0  0  0  0  0  0  0
    5.9400    0.3336   -0.2156 C   0  0  0  0  0  0  0  0  0  0  0  0
    6.1410    1.3838    0.3911 O   0  0  0  0  0  0  0  0  0  0  0  0
    4.7712    0.1484   -1.2135 C   0  0  3  0  0  0  0  0  0  0  0  0
    3.5598    0.9457   -0.7118 C   0  0  0  0  0  0  0  0  0  0  0  0
    5.1393    0.5070   -2.6227 N   0  0  0  0  0  0  0  0  0  0  0  0
    6.2223   -0.3491   -3.1569 C   0  0  0  0  0  0  0  0  0  0  0  0
    6.4488   -0.1357   -4.6676 C   0  0  3  0  0  0  0  0  0  0  0  0
    5.3709   -0.8390   -5.5039 C   0  0  0  0  0  0  0  0  0  0  0  0
    5.6818   -1.6587   -6.3654 O   0  0  0  0  0  0  0  0  0  0  0  0
    4.0801   -0.4538   -5.1914 N   0  0  0  0  0  0  0  0  0  0  0  0
    2.8701   -0.8045   -5.8410 C   0  0  0  0  0  0  0  0  0  0  0  0
    2.8197   -1.6451   -6.9516 C   0  0  0  0  0  0  0  0  0  0  0  0
    1.7161   -1.8513   -7.7065 N   0  0  0  0  0  0  0  0  0  0  0  0
    0.5813   -1.2400   -7.2983 C   0  0  0  0  0  0  0  0  0  0  0  0
    0.4655   -0.5077   -6.1255 C   0  0  0  0  0  0  0  0  0  0  0  0
   -0.7845   -0.0344   -5.6824 C   0  0  0  0  0  0  0  0  0  0  0  0
   -0.9003    0.6799   -4.4952 C   0  0  0  0  0  0  0  0  0  0  0  0
    0.2408    0.9734   -3.7605 C   0  0  0  0  0  0  0  0  0  0  0  0
    1.4880    0.5218   -4.2011 C   0  0  0  0  0  0  0  0  0  0  0  0
    1.6365   -0.2523   -5.3746 C   0  0  0  0  0  0  0  0  0  0  0  0
    6.5762    1.3411   -4.9979 C   0  0  0  0  0  0  0  0  0  0  0  0
    7.2144    1.7531   -6.1780 C   0  0  0  0  0  0  0  0  0  0  0  0
    7.3309    3.1127   -6.4734 C   0  0  0  0  0  0  0  0  0  0  0  0
    8.1528    3.6113   -7.8999 Cl  0  0  0  0  0  0  0  0  0  0  0  0
    6.8043    4.0707   -5.6135 C   0  0  0  0  0  0  0  0  0  0  0  0
    6.1804    3.6713   -4.4341 C   0  0  0  0  0  0  0  0  0  0  0  0
    6.0661    2.3087   -4.1111 C   0  0  0  0  0  0  0  0  0  0  0  0
    5.4953    1.9344   -2.7592 C   0  0  0  0  0  0  0  0  0  0  0  0
    8.4342   -1.6853    0.7220 H   0  0  0  0  0  0  0  0  0  0  0  0
    7.6273   -0.4866    1.7815 H   0  0  0  0  0  0  0  0  0  0  0  0
    8.6069    0.0666    0.3964 H   0  0  0  0  0  0  0  0  0  0  0  0
    6.5678   -1.6118   -0.6014 H   0  0  0  0  0  0  0  0  0  0  0  0
    4.4743   -0.9086   -1.1993 H   0  0  0  0  0  0  0  0  0  0  0  0
    3.7608    2.0206   -0.6472 H   0  0  0  0  0  0  0  0  0  0  0  0
    3.2807    0.6213    0.2969 H   0  0  0  0  0  0  0  0  0  0  0  0
    2.6910    0.7975   -1.3574 H   0  0  0  0  0  0  0  0  0  0  0  0
    5.9839   -1.4060   -2.9830 H   0  0  0  0  0  0  0  0  0  0  0  0
    7.1660   -0.1345   -2.6385 H   0  0  0  0  0  0  0  0  0  0  0  0
    7.4026   -0.6225   -4.9157 H   0  0  0  0  0  0  0  0  0  0  0  0
    4.0223    0.2313   -4.4451 H   0  0  0  0  0  0  0  0  0  0  0  0
    3.6839   -2.2026   -7.2995 H   0  0  0  0  0  0  0  0  0  0  0  0
   -0.2602   -1.3711   -7.9701 H   0  0  0  0  0  0  0  0  0  0  0  0
   -1.6881   -0.2557   -6.2498 H   0  0  0  0  0  0  0  0  0  0  0  0
   -1.8759    1.0029   -4.1399 H   0  0  0  0  0  0  0  0  0  0  0  0
    0.1618    1.5403   -2.8363 H   0  0  0  0  0  0  0  0  0  0  0  0
    2.3434    0.7706   -3.5815 H   0  0  0  0  0  0  0  0  0  0  0  0
    7.6362    1.0169   -6.8580 H   0  0  0  0  0  0  0  0  0  0  0  0
    6.8956    5.1302   -5.8436 H   0  0  0  0  0  0  0  0  0  0  0  0
    5.7997    4.4298   -3.7512 H   0  0  0  0  0  0  0  0  0  0  0  0
    4.5874    2.5324   -2.6221 H   0  0  0  0  0  0  0  0  0  0  0  0
    6.2339    2.2390   -2.0102 H   0  0  0  0  0  0  0  0  0  0  0  0
  1  2  1  0  0  0  0
  1 31  1  0  0  0  0
  1 32  1  0  0  0  0
  1 33  1  0  0  0  0
  2  3  1  0  0  0  0
  2 34  1  0  0  0  0
  3  4  2  0  0  0  0
  3  5  1  0  0  0  0
  5  6  1  0  0  0  0
  5  7  1  0  0  0  0
  5 35  1  0  0  0  0
  6 36  1  0  0  0  0
  6 37  1  0  0  0  0
  6 38  1  0  0  0  0
  7  8  1  0  0  0  0
  7 30  1  0  0  0  0
  8  9  1  0  0  0  0
  8 39  1  0  0  0  0
  8 40  1  0  0  0  0
  9 10  1  0  0  0  0
  9 23  1  0  0  0  0
  9 41  1  0  0  0  0
 10 11  2  0  0  0  0
 10 12  1  0  0  0  0
 12 13  1  0  0  0  0
 12 42  1  0  0  0  0
 13 14  1  0  0  0  0
 13 22  2  0  0  0  0
 14 15  2  0  0  0  0
 14 43  1  0  0  0  0
 15 16  1  0  0  0  0
 16 17  2  0  0  0  0
 16 44  1  0  0  0  0
 17 18  1  0  0  0  0
 17 22  1  0  0  0  0
 18 19  2  0  0  0  0
 18 45  1  0  0  0  0
 19 20  1  0  0  0  0
 19 46  1  0  0  0  0
 20 21  2  0  0  0  0
 20 47  1  0  0  0  0
 21 22  1  0  0  0  0
 21 48  1  0  0  0  0
 23 24  1  0  0  0  0
 23 29  2  0  0  0  0
 24 25  2  0  0  0  0
 24 49  1  0  0  0  0
 25 26  1  0  0  0  0
 25 27  1  0  0  0  0
 27 28  2  0  0  0  0
 27 50  1  0  0  0  0
 28 29  1  0  0  0  0
 28 51  1  0  0  0  0
 29 30  1  0  0  0  0
 30 52  1  0  0  0  0
 30 53  1  0  0  0  0
M  END
$$$$
