
 OpenBabel07202414193D

 60 64  0  0  1  0  0  0  0  0999 V2000
    1.3131    0.5205    0.8037 O   0  0  0  0  0  0  0  0  0  0  0  0
    2.2065   -0.1238    0.2586 C   0  0  0  0  0  0  0  0  0  0  0  0
    2.7554    0.2270   -1.1356 C   0  0  0  0  0  0  0  0  0  0  0  0
    1.7370    0.2312   -2.2087 N   0  0  0  0  0  0  0  0  0  0  0  0
    1.0840   -1.0752   -2.3487 C   0  0  0  0  0  0  0  0  0  0  0  0
   -0.0044   -1.1011   -3.4006 C   0  0  0  0  0  0  0  0  0  0  0  0
   -0.4666   -2.3402   -3.8719 C   0  0  0  0  0  0  0  0  0  0  0  0
   -1.4740   -2.4044   -4.8348 C   0  0  0  0  0  0  0  0  0  0  0  0
   -2.0214   -1.2338   -5.3389 C   0  0  0  0  0  0  0  0  0  0  0  0
   -3.2500   -1.3085   -6.5428 Cl  0  0  0  0  0  0  0  0  0  0  0  0
   -1.5807    0.0063   -4.8812 C   0  0  0  0  0  0  0  0  0  0  0  0
   -0.5961    0.0836   -3.8804 C   0  0  0  0  0  0  0  0  0  0  0  0
   -0.0994    1.4306   -3.3782 C   0  0  1  0  0  0  0  0  0  0  0  0
   -1.2242    2.4618   -3.2091 C   0  0  0  0  0  0  0  0  0  0  0  0
   -1.1574    3.5312   -3.8137 O   0  0  0  0  0  0  0  0  0  0  0  0
   -2.2685    2.0908   -2.3705 N   0  0  0  0  0  0  0  0  0  0  0  0
   -3.4777    2.8219   -2.1646 C   0  0  0  0  0  0  0  0  0  0  0  0
   -3.8535    3.8826   -2.9950 C   0  0  0  0  0  0  0  0  0  0  0  0
   -4.9337    4.6769   -2.8066 N   0  0  0  0  0  0  0  0  0  0  0  0
   -5.7163    4.3809   -1.7538 C   0  0  0  0  0  0  0  0  0  0  0  0
   -5.5225    3.2880   -0.9104 C   0  0  0  0  0  0  0  0  0  0  0  0
   -6.4553    3.0045    0.1003 C   0  0  0  0  0  0  0  0  0  0  0  0
   -6.2832    1.9030    0.9352 C   0  0  0  0  0  0  0  0  0  0  0  0
   -5.1614    1.1017    0.7808 C   0  0  0  0  0  0  0  0  0  0  0  0
   -4.2179    1.3849   -0.2146 C   0  0  0  0  0  0  0  0  0  0  0  0
   -4.3738    2.4785   -1.1083 C   0  0  0  0  0  0  0  0  0  0  0  0
    0.7456    1.3158   -2.0885 C   0  0  0  0  0  0  0  0  0  0  0  0
    2.7811   -1.2369    0.8406 N   0  0  0  0  0  0  0  0  0  0  0  0
    2.4023   -1.6958    2.1625 C   0  0  0  0  0  0  0  0  0  0  0  0
    1.8788   -3.1089    2.1226 C   0  0  0  0  0  0  0  0  0  0  0  0
    2.5343   -4.1442    2.8057 C   0  0  0  0  0  0  0  0  0  0  0  0
    2.0396   -5.4508    2.7604 C   0  0  0  0  0  0  0  0  0  0  0  0
    0.8852   -5.7369    2.0316 C   0  0  0  0  0  0  0  0  0  0  0  0
    0.2223   -4.7120    1.3609 C   0  0  0  0  0  0  0  0  0  0  0  0
   -1.2011   -5.0589    0.4588 Cl  0  0  0  0  0  0  0  0  0  0  0  0
    0.7064   -3.4052    1.4096 C   0  0  0  0  0  0  0  0  0  0  0  0
    3.5467   -0.4821   -1.4117 H   0  0  0  0  0  0  0  0  0  0  0  0
    3.2469    1.2049   -1.0689 H   0  0  0  0  0  0  0  0  0  0  0  0
    0.6320   -1.4016   -1.4059 H   0  0  0  0  0  0  0  0  0  0  0  0
    1.8495   -1.8084   -2.6355 H   0  0  0  0  0  0  0  0  0  0  0  0
   -0.0370   -3.2649   -3.4922 H   0  0  0  0  0  0  0  0  0  0  0  0
   -1.8205   -3.3712   -5.1894 H   0  0  0  0  0  0  0  0  0  0  0  0
   -2.0086    0.9141   -5.3058 H   0  0  0  0  0  0  0  0  0  0  0  0
    0.5615    1.8156   -4.1699 H   0  0  0  0  0  0  0  0  0  0  0  0
   -2.1327    1.2616   -1.8093 H   0  0  0  0  0  0  0  0  0  0  0  0
   -3.3048    4.1351   -3.8964 H   0  0  0  0  0  0  0  0  0  0  0  0
   -6.5443    5.0702   -1.6072 H   0  0  0  0  0  0  0  0  0  0  0  0
   -7.3405    3.6273    0.2297 H   0  0  0  0  0  0  0  0  0  0  0  0
   -7.0264    1.6751    1.6944 H   0  0  0  0  0  0  0  0  0  0  0  0
   -5.0178    0.2455    1.4388 H   0  0  0  0  0  0  0  0  0  0  0  0
   -3.3605    0.7220   -0.2816 H   0  0  0  0  0  0  0  0  0  0  0  0
    0.0956    1.1616   -1.2209 H   0  0  0  0  0  0  0  0  0  0  0  0
    1.2598    2.2740   -1.9335 H   0  0  0  0  0  0  0  0  0  0  0  0
    3.4954   -1.7572    0.3474 H   0  0  0  0  0  0  0  0  0  0  0  0
    1.6505   -1.0392    2.6144 H   0  0  0  0  0  0  0  0  0  0  0  0
    3.3031   -1.6333    2.7835 H   0  0  0  0  0  0  0  0  0  0  0  0
    3.4334   -3.9427    3.3855 H   0  0  0  0  0  0  0  0  0  0  0  0
    2.5536   -6.2467    3.2950 H   0  0  0  0  0  0  0  0  0  0  0  0
    0.5073   -6.7553    1.9952 H   0  0  0  0  0  0  0  0  0  0  0  0
    0.1708   -2.6099    0.8959 H   0  0  0  0  0  0  0  0  0  0  0  0
  1  2  2  0  0  0  0
  2  3  1  0  0  0  0
  2 28  1  0  0  0  0
  3  4  1  0  0  0  0
  3 37  1  0  0  0  0
  3 38  1  0  0  0  0
  4  5  1  0  0  0  0
  4 27  1  0  0  0  0
  5  6  1  0  0  0  0
  5 39  1  0  0  0  0
  5 40  1  0  0  0  0
  6  7  1  0  0  0  0
  6 12  2  0  0  0  0
  7  8  2  0  0  0  0
  7 41  1  0  0  0  0
  8  9  1  0  0  0  0
  8 42  1  0  0  0  0
  9 10  1  0  0  0  0
  9 11  2  0  0  0  0
 11 12  1  0  0  0  0
 11 43  1  0  0  0  0
 12 13  1  0  0  0  0
 13 27  1  0  0  0  0
 13 14  1  0  0  0  0
 13 44  1  6  0  0  0
 14 15  2  0  0  0  0
 14 16  1  0  0  0  0
 16 17  1  0  0  0  0
 16 45  1  0  0  0  0
 17 18  1  0  0  0  0
 17 26  2  0  0  0  0
 18 19  2  0  0  0  0
 18 46  1  0  0  0  0
 19 20  1  0  0  0  0
 20 21  2  0  0  0  0
 20 47  1  0  0  0  0
 21 22  1  0  0  0  0
 21 26  1  0  0  0  0
 22 23  2  0  0  0  0
 22 48  1  0  0  0  0
 23 24  1  0  0  0  0
 23 49  1  0  0  0  0
 24 25  2  0  0  0  0
 24 50  1  0  0  0  0
 25 26  1  0  0  0  0
 25 51  1  0  0  0  0
 27 52  1  0  0  0  0
 27 53  1  0  0  0  0
 28 29  1  0  0  0  0
 28 54  1  0  0  0  0
 29 30  1  0  0  0  0
 29 55  1  0  0  0  0
 29 56  1  0  0  0  0
 30 31  1  0  0  0  0
 30 36  2  0  0  0  0
 31 32  2  0  0  0  0
 31 57  1  0  0  0  0
 32 33  1  0  0  0  0
 32 58  1  0  0  0  0
 33 34  2  0  0  0  0
 33 59  1  0  0  0  0
 34 35  1  0  0  0  0
 34 36  1  0  0  0  0
 36 60  1  0  0  0  0
M  END
$$$$
