
 OpenBabel07202414113D

 60 63  0  0  1  0  0  0  0  0999 V2000
    3.0845    1.5061   -4.4920 C   0  0  0  0  0  0  0  0  0  0  0  0
    4.2219    0.6485   -4.9807 C   0  0  0  0  0  0  0  0  0  0  0  0
    4.8298    0.9293   -6.0099 O   0  0  0  0  0  0  0  0  0  0  0  0
    4.5826   -0.5788   -4.2139 C   0  0  0  0  0  0  0  0  0  0  0  0
    3.8752   -0.9991   -3.0860 C   0  0  0  0  0  0  0  0  0  0  0  0
    4.2082   -2.2067   -2.4633 C   0  0  0  0  0  0  0  0  0  0  0  0
    5.2574   -3.0138   -2.9519 C   0  0  0  0  0  0  0  0  0  0  0  0
    5.4700   -4.3223   -2.4232 N   0  0  0  0  0  0  0  0  0  0  0  0
    6.7559   -4.6564   -1.7219 C   0  0  3  0  0  0  0  0  0  0  0  0
    8.1222   -4.4980   -2.4777 C   0  0  0  0  0  0  0  0  0  0  0  0
    8.5322   -3.4316   -2.9296 O   0  0  0  0  0  0  0  0  0  0  0  0
    8.9148   -5.6444   -2.5137 N   0  0  0  0  0  0  0  0  0  0  0  0
   10.2688   -5.5890   -3.0570 C   0  0  0  0  0  0  0  0  0  0  0  0
   11.0471   -6.8881   -2.8384 C   0  0  0  0  0  0  0  0  0  0  0  0
   12.4567   -6.8477   -3.3783 C   0  0  0  0  0  0  0  0  0  0  0  0
   13.5309   -6.4652   -2.5589 C   0  0  0  0  0  0  0  0  0  0  0  0
   14.8424   -6.4711   -3.0484 C   0  0  0  0  0  0  0  0  0  0  0  0
   15.0936   -6.8549   -4.3643 C   0  0  0  0  0  0  0  0  0  0  0  0
   14.0302   -7.2113   -5.1840 C   0  0  0  0  0  0  0  0  0  0  0  0
   14.2710   -7.5770   -6.4504 F   0  0  0  0  0  0  0  0  0  0  0  0
   12.7210   -7.2074   -4.7066 C   0  0  0  0  0  0  0  0  0  0  0  0
    6.9148   -4.0320   -0.3280 C   0  0  0  0  0  0  0  0  0  0  0  0
    6.4979   -2.7438    0.0175 C   0  0  0  0  0  0  0  0  0  0  0  0
    6.6889   -2.2508    1.3049 C   0  0  0  0  0  0  0  0  0  0  0  0
    7.3534   -3.0498    2.2157 C   0  0  0  0  0  0  0  0  0  0  0  0
    7.8401   -4.2705    1.9162 N   0  0  0  0  0  0  0  0  0  0  0  0
    7.6154   -4.7266    0.6607 C   0  0  0  0  0  0  0  0  0  0  0  0
    4.4003   -5.2608   -2.3475 C   0  0  0  0  0  0  0  0  0  0  0  0
    4.5262   -6.2957   -1.6867 O   0  0  0  0  0  0  0  0  0  0  0  0
    3.1453   -4.9981   -3.0652 C   0  0  0  0  0  0  0  0  0  0  0  0
    1.8522   -5.4363   -2.8237 C   0  0  0  0  0  0  0  0  0  0  0  0
    1.0092   -4.7914   -3.7662 C   0  0  0  0  0  0  0  0  0  0  0  0
    1.8368   -4.0431   -4.5655 C   0  0  0  0  0  0  0  0  0  0  0  0
    3.1278   -4.2068   -4.1870 O   0  0  0  0  0  0  0  0  0  0  0  0
    5.9774   -2.5716   -4.0566 C   0  0  0  0  0  0  0  0  0  0  0  0
    5.6476   -1.3626   -4.6801 C   0  0  0  0  0  0  0  0  0  0  0  0
    3.0002    2.3861   -5.1377 H   0  0  0  0  0  0  0  0  0  0  0  0
    3.2804    1.8535   -3.4747 H   0  0  0  0  0  0  0  0  0  0  0  0
    2.1423    0.9541   -4.5437 H   0  0  0  0  0  0  0  0  0  0  0  0
    3.0380   -0.4293   -2.6901 H   0  0  0  0  0  0  0  0  0  0  0  0
    3.6202   -2.5316   -1.6060 H   0  0  0  0  0  0  0  0  0  0  0  0
    6.6891   -5.7358   -1.5285 H   0  0  0  0  0  0  0  0  0  0  0  0
    8.4841   -6.5509   -2.3738 H   0  0  0  0  0  0  0  0  0  0  0  0
   10.7877   -4.7501   -2.5766 H   0  0  0  0  0  0  0  0  0  0  0  0
   10.1909   -5.3551   -4.1247 H   0  0  0  0  0  0  0  0  0  0  0  0
   10.5120   -7.7267   -3.3011 H   0  0  0  0  0  0  0  0  0  0  0  0
   11.0808   -7.1271   -1.7646 H   0  0  0  0  0  0  0  0  0  0  0  0
   13.3578   -6.1698   -1.5256 H   0  0  0  0  0  0  0  0  0  0  0  0
   15.6678   -6.1854   -2.3998 H   0  0  0  0  0  0  0  0  0  0  0  0
   16.1064   -6.8760   -4.7540 H   0  0  0  0  0  0  0  0  0  0  0  0
   11.9216   -7.5026   -5.3800 H   0  0  0  0  0  0  0  0  0  0  0  0
    6.0427   -2.0786   -0.7017 H   0  0  0  0  0  0  0  0  0  0  0  0
    6.3386   -1.2638    1.5795 H   0  0  0  0  0  0  0  0  0  0  0  0
    7.5304   -2.7085    3.2306 H   0  0  0  0  0  0  0  0  0  0  0  0
    8.0552   -5.7023    0.4684 H   0  0  0  0  0  0  0  0  0  0  0  0
    1.5519   -6.1046   -2.0283 H   0  0  0  0  0  0  0  0  0  0  0  0
   -0.0669   -4.8567   -3.8514 H   0  0  0  0  0  0  0  0  0  0  0  0
    1.6766   -3.3739   -5.4005 H   0  0  0  0  0  0  0  0  0  0  0  0
    6.7540   -3.1832   -4.5060 H   0  0  0  0  0  0  0  0  0  0  0  0
    6.2035   -1.0613   -5.5657 H   0  0  0  0  0  0  0  0  0  0  0  0
  1  2  1  0  0  0  0
  1 37  1  0  0  0  0
  1 38  1  0  0  0  0
  1 39  1  0  0  0  0
  2  3  2  0  0  0  0
  2  4  1  0  0  0  0
  4  5  1  0  0  0  0
  4 36  2  0  0  0  0
  5  6  2  0  0  0  0
  5 40  1  0  0  0  0
  6  7  1  0  0  0  0
  6 41  1  0  0  0  0
  7  8  1  0  0  0  0
  7 35  2  0  0  0  0
  8  9  1  0  0  0  0
  8 28  1  0  0  0  0
  9 10  1  0  0  0  0
  9 22  1  0  0  0  0
  9 42  1  0  0  0  0
 10 11  2  0  0  0  0
 10 12  1  0  0  0  0
 12 13  1  0  0  0  0
 12 43  1  0  0  0  0
 13 14  1  0  0  0  0
 13 44  1  0  0  0  0
 13 45  1  0  0  0  0
 14 15  1  0  0  0  0
 14 46  1  0  0  0  0
 14 47  1  0  0  0  0
 15 16  1  0  0  0  0
 15 21  2  0  0  0  0
 16 17  2  0  0  0  0
 16 48  1  0  0  0  0
 17 18  1  0  0  0  0
 17 49  1  0  0  0  0
 18 19  2  0  0  0  0
 18 50  1  0  0  0  0
 19 20  1  0  0  0  0
 19 21  1  0  0  0  0
 21 51  1  0  0  0  0
 22 23  1  0  0  0  0
 22 27  2  0  0  0  0
 23 24  2  0  0  0  0
 23 52  1  0  0  0  0
 24 25  1  0  0  0  0
 24 53  1  0  0  0  0
 25 26  2  0  0  0  0
 25 54  1  0  0  0  0
 26 27  1  0  0  0  0
 27 55  1  0  0  0  0
 28 29  2  0  0  0  0
 28 30  1  0  0  0  0
 30 31  2  0  0  0  0
 30 34  1  0  0  0  0
 31 32  1  0  0  0  0
 31 56  1  0  0  0  0
 32 33  2  0  0  0  0
 32 57  1  0  0  0  0
 33 34  1  0  0  0  0
 33 58  1  0  0  0  0
 35 36  1  0  0  0  0
 35 59  1  0  0  0  0
 36 60  1  0  0  0  0
M  END
$$$$
