
 OpenBabel07202414163D

 47 50  0  0  0  0  0  0  0  0999 V2000
    0.6756   -5.5696    3.3139 C   0  0  0  0  0  0  0  0  0  0  0  0
   -0.2185   -4.3942    3.0174 C   0  0  0  0  0  0  0  0  0  0  0  0
   -0.5080   -3.5115    4.0640 C   0  0  0  0  0  0  0  0  0  0  0  0
   -1.1301   -2.2959    3.8065 C   0  0  0  0  0  0  0  0  0  0  0  0
   -1.5309   -1.9763    2.5140 C   0  0  0  0  0  0  0  0  0  0  0  0
   -1.3948   -2.8949    1.4676 C   0  0  0  0  0  0  0  0  0  0  0  0
   -1.9878   -2.5276    0.1150 C   0  0  0  0  0  0  0  0  0  0  0  0
   -3.4403   -2.2504    0.1643 N   0  0  0  0  0  0  0  0  0  0  0  0
   -3.9421   -0.9182    0.2120 C   0  0  0  0  0  0  0  0  0  0  0  0
   -3.2013    0.0687    0.1765 O   0  0  0  0  0  0  0  0  0  0  0  0
   -5.4948   -0.8176    0.3174 C   0  0  0  0  0  0  0  0  0  0  0  0
   -6.2350    0.5047    0.5184 C   0  0  0  0  0  0  0  0  0  0  0  0
   -5.6164    1.5831    1.1476 C   0  0  0  0  0  0  0  0  0  0  0  0
   -6.2454    2.7246    1.5129 N   0  0  0  0  0  0  0  0  0  0  0  0
   -7.5691    2.8067    1.2624 C   0  0  0  0  0  0  0  0  0  0  0  0
   -8.3195    1.8088    0.6550 C   0  0  0  0  0  0  0  0  0  0  0  0
   -9.7116    1.9702    0.4720 C   0  0  0  0  0  0  0  0  0  0  0  0
  -10.4698    0.9762   -0.1363 C   0  0  0  0  0  0  0  0  0  0  0  0
   -9.8387   -0.1813   -0.5721 C   0  0  0  0  0  0  0  0  0  0  0  0
   -8.4562   -0.3525   -0.3782 C   0  0  0  0  0  0  0  0  0  0  0  0
   -7.6444    0.6300    0.2515 C   0  0  0  0  0  0  0  0  0  0  0  0
   -4.3499   -3.3862    0.2142 C   0  0  0  0  0  0  0  0  0  0  0  0
   -4.1329   -4.7601   -0.3595 C   0  0  0  0  0  0  0  0  0  0  0  0
   -5.0208   -3.7973   -1.0790 C   0  0  0  0  0  0  0  0  0  0  0  0
   -0.6801   -4.0906    1.7177 C   0  0  0  0  0  0  0  0  0  0  0  0
    0.6037   -5.8607    4.3701 H   0  0  0  0  0  0  0  0  0  0  0  0
    1.7188   -5.2918    3.1231 H   0  0  0  0  0  0  0  0  0  0  0  0
    0.4219   -6.4483    2.7160 H   0  0  0  0  0  0  0  0  0  0  0  0
   -0.2148   -3.7494    5.0838 H   0  0  0  0  0  0  0  0  0  0  0  0
   -1.2918   -1.5853    4.6120 H   0  0  0  0  0  0  0  0  0  0  0  0
   -1.9605   -0.9962    2.3209 H   0  0  0  0  0  0  0  0  0  0  0  0
   -1.8097   -3.3282   -0.6100 H   0  0  0  0  0  0  0  0  0  0  0  0
   -1.4632   -1.6469   -0.2730 H   0  0  0  0  0  0  0  0  0  0  0  0
   -5.8092   -1.4309    1.1724 H   0  0  0  0  0  0  0  0  0  0  0  0
   -5.8726   -1.2646   -0.6067 H   0  0  0  0  0  0  0  0  0  0  0  0
   -4.5664    1.5680    1.4237 H   0  0  0  0  0  0  0  0  0  0  0  0
   -8.0321    3.7354    1.5910 H   0  0  0  0  0  0  0  0  0  0  0  0
  -10.2140    2.8747    0.8139 H   0  0  0  0  0  0  0  0  0  0  0  0
  -11.5416    1.1078   -0.2715 H   0  0  0  0  0  0  0  0  0  0  0  0
  -10.4178   -0.9583   -1.0646 H   0  0  0  0  0  0  0  0  0  0  0  0
   -8.0211   -1.2785   -0.7418 H   0  0  0  0  0  0  0  0  0  0  0  0
   -4.9322   -3.4047    1.1346 H   0  0  0  0  0  0  0  0  0  0  0  0
   -4.6171   -5.5925    0.1453 H   0  0  0  0  0  0  0  0  0  0  0  0
   -3.1892   -5.0255   -0.8129 H   0  0  0  0  0  0  0  0  0  0  0  0
   -6.0934   -3.9452   -1.0621 H   0  0  0  0  0  0  0  0  0  0  0  0
   -4.6453   -3.3809   -2.0087 H   0  0  0  0  0  0  0  0  0  0  0  0
   -0.4659   -4.7830    0.9050 H   0  0  0  0  0  0  0  0  0  0  0  0
  1  2  1  0  0  0  0
  1 26  1  0  0  0  0
  1 27  1  0  0  0  0
  1 28  1  0  0  0  0
  2  3  1  0  0  0  0
  2 25  2  0  0  0  0
  3  4  2  0  0  0  0
  3 29  1  0  0  0  0
  4  5  1  0  0  0  0
  4 30  1  0  0  0  0
  5  6  2  0  0  0  0
  5 31  1  0  0  0  0
  6  7  1  0  0  0  0
  6 25  1  0  0  0  0
  7  8  1  0  0  0  0
  7 32  1  0  0  0  0
  7 33  1  0  0  0  0
  8  9  1  0  0  0  0
  8 22  1  0  0  0  0
  9 10  2  0  0  0  0
  9 11  1  0  0  0  0
 11 12  1  0  0  0  0
 11 34  1  0  0  0  0
 11 35  1  0  0  0  0
 12 13  1  0  0  0  0
 12 21  2  0  0  0  0
 13 14  2  0  0  0  0
 13 36  1  0  0  0  0
 14 15  1  0  0  0  0
 15 16  2  0  0  0  0
 15 37  1  0  0  0  0
 16 17  1  0  0  0  0
 16 21  1  0  0  0  0
 17 18  2  0  0  0  0
 17 38  1  0  0  0  0
 18 19  1  0  0  0  0
 18 39  1  0  0  0  0
 19 20  2  0  0  0  0
 19 40  1  0  0  0  0
 20 21  1  0  0  0  0
 20 41  1  0  0  0  0
 22 23  1  0  0  0  0
 22 24  1  0  0  0  0
 22 42  1  0  0  0  0
 23 24  1  0  0  0  0
 23 43  1  0  0  0  0
 23 44  1  0  0  0  0
 24 45  1  0  0  0  0
 24 46  1  0  0  0  0
 25 47  1  0  0  0  0
M  END
$$$$
