
 OpenBabel07202414153D

 54 57  0  0  0  0  0  0  0  0999 V2000
   -2.5777    1.4549   -4.1353 C   0  0  0  0  0  0  0  0  0  0  0  0
   -1.2561    1.6016   -3.6174 O   0  0  0  0  0  0  0  0  0  0  0  0
   -0.2933    0.7811   -4.1493 C   0  0  0  0  0  0  0  0  0  0  0  0
   -0.6205   -0.4602   -4.7232 C   0  0  0  0  0  0  0  0  0  0  0  0
    0.3538   -1.2535   -5.3227 C   0  0  0  0  0  0  0  0  0  0  0  0
    1.6614   -0.7993   -5.3843 C   0  0  0  0  0  0  0  0  0  0  0  0
    1.9975    0.4189   -4.7882 C   0  0  0  0  0  0  0  0  0  0  0  0
    3.3130    0.8691   -4.9430 N   0  0  0  0  0  0  0  0  0  0  0  0
    3.7621    2.0636   -4.4710 C   0  0  0  0  0  0  0  0  0  0  0  0
    4.8949    2.4670   -4.6989 O   0  0  0  0  0  0  0  0  0  0  0  0
    2.8324    2.8213   -3.6205 C   0  0  0  0  0  0  0  0  0  0  0  0
    1.5646    2.4227   -3.3989 C   0  0  0  0  0  0  0  0  0  0  0  0
    0.8937    3.2522   -2.3348 C   0  0  0  0  0  0  0  0  0  0  0  0
    1.1819    4.4347   -2.1660 O   0  0  0  0  0  0  0  0  0  0  0  0
    0.0110    2.5965   -1.5162 N   0  0  0  0  0  0  0  0  0  0  0  0
   -0.7418    3.2744   -0.4663 C   0  0  0  0  0  0  0  0  0  0  0  0
   -1.9307    4.0818   -1.0027 C   0  0  0  0  0  0  0  0  0  0  0  0
   -2.6682    4.6819    0.0769 O   0  0  0  0  0  0  0  0  0  0  0  0
   -4.0219    4.8711   -0.0979 C   0  0  0  0  0  0  0  0  0  0  0  0
   -4.6849    4.6452   -1.3143 C   0  0  0  0  0  0  0  0  0  0  0  0
   -6.0760    4.7253   -1.4096 C   0  0  0  0  0  0  0  0  0  0  0  0
   -6.8287    5.0350   -0.2884 C   0  0  0  0  0  0  0  0  0  0  0  0
   -6.1853    5.3256    0.9121 C   0  0  0  0  0  0  0  0  0  0  0  0
   -4.7819    5.3050    1.0100 C   0  0  0  0  0  0  0  0  0  0  0  0
   -4.1144    5.7141    2.1496 O   0  0  0  0  0  0  0  0  0  0  0  0
   -4.8876    6.5533    3.0232 C   0  0  0  0  0  0  0  0  0  0  0  0
   -4.0027    7.3271    3.9518 C   0  0  0  0  0  0  0  0  0  0  0  0
   -3.2192    6.6665    5.0538 C   0  0  0  0  0  0  0  0  0  0  0  0
   -4.4222    7.5015    5.3945 C   0  0  0  0  0  0  0  0  0  0  0  0
    1.0514    1.2057   -4.0929 C   0  0  0  0  0  0  0  0  0  0  0  0
   -3.1810    2.2874   -3.7622 H   0  0  0  0  0  0  0  0  0  0  0  0
   -3.0384    0.5311   -3.7716 H   0  0  0  0  0  0  0  0  0  0  0  0
   -2.5869    1.4987   -5.2300 H   0  0  0  0  0  0  0  0  0  0  0  0
   -1.6365   -0.8427   -4.7123 H   0  0  0  0  0  0  0  0  0  0  0  0
    0.0846   -2.2123   -5.7582 H   0  0  0  0  0  0  0  0  0  0  0  0
    2.4099   -1.3994   -5.8945 H   0  0  0  0  0  0  0  0  0  0  0  0
    3.9718    0.3410   -5.4977 H   0  0  0  0  0  0  0  0  0  0  0  0
    3.2759    3.6894   -3.1408 H   0  0  0  0  0  0  0  0  0  0  0  0
   -0.3046    1.6791   -1.8041 H   0  0  0  0  0  0  0  0  0  0  0  0
   -0.0674    3.9137    0.1116 H   0  0  0  0  0  0  0  0  0  0  0  0
   -1.1097    2.4925    0.2081 H   0  0  0  0  0  0  0  0  0  0  0  0
   -2.5387    3.3715   -1.5717 H   0  0  0  0  0  0  0  0  0  0  0  0
   -1.5885    4.8757   -1.6762 H   0  0  0  0  0  0  0  0  0  0  0  0
   -4.1468    4.4104   -2.2251 H   0  0  0  0  0  0  0  0  0  0  0  0
   -6.5677    4.5339   -2.3593 H   0  0  0  0  0  0  0  0  0  0  0  0
   -7.9128    5.0749   -0.3476 H   0  0  0  0  0  0  0  0  0  0  0  0
   -6.8133    5.5728    1.7620 H   0  0  0  0  0  0  0  0  0  0  0  0
   -5.5808    5.9263    3.5969 H   0  0  0  0  0  0  0  0  0  0  0  0
   -5.4576    7.2949    2.4478 H   0  0  0  0  0  0  0  0  0  0  0  0
   -3.5486    8.1764    3.4528 H   0  0  0  0  0  0  0  0  0  0  0  0
   -2.2417    7.0752    5.2842 H   0  0  0  0  0  0  0  0  0  0  0  0
   -3.2900    5.5903    5.1570 H   0  0  0  0  0  0  0  0  0  0  0  0
   -4.2629    8.4677    5.8603 H   0  0  0  0  0  0  0  0  0  0  0  0
   -5.3012    6.9807    5.7599 H   0  0  0  0  0  0  0  0  0  0  0  0
  1  2  1  0  0  0  0
  1 31  1  0  0  0  0
  1 32  1  0  0  0  0
  1 33  1  0  0  0  0
  2  3  1  0  0  0  0
  3  4  1  0  0  0  0
  3 30  2  0  0  0  0
  4  5  2  0  0  0  0
  4 34  1  0  0  0  0
  5  6  1  0  0  0  0
  5 35  1  0  0  0  0
  6  7  2  0  0  0  0
  6 36  1  0  0  0  0
  7  8  1  0  0  0  0
  7 30  1  0  0  0  0
  8  9  1  0  0  0  0
  8 37  1  0  0  0  0
  9 10  2  0  0  0  0
  9 11  1  0  0  0  0
 11 12  2  0  0  0  0
 11 38  1  0  0  0  0
 12 13  1  0  0  0  0
 12 30  1  0  0  0  0
 13 14  2  0  0  0  0
 13 15  1  0  0  0  0
 15 16  1  0  0  0  0
 15 39  1  0  0  0  0
 16 17  1  0  0  0  0
 16 40  1  0  0  0  0
 16 41  1  0  0  0  0
 17 18  1  0  0  0  0
 17 42  1  0  0  0  0
 17 43  1  0  0  0  0
 18 19  1  0  0  0  0
 19 20  1  0  0  0  0
 19 24  2  0  0  0  0
 20 21  2  0  0  0  0
 20 44  1  0  0  0  0
 21 22  1  0  0  0  0
 21 45  1  0  0  0  0
 22 23  2  0  0  0  0
 22 46  1  0  0  0  0
 23 24  1  0  0  0  0
 23 47  1  0  0  0  0
 24 25  1  0  0  0  0
 25 26  1  0  0  0  0
 26 27  1  0  0  0  0
 26 48  1  0  0  0  0
 26 49  1  0  0  0  0
 27 28  1  0  0  0  0
 27 29  1  0  0  0  0
 27 50  1  0  0  0  0
 28 29  1  0  0  0  0
 28 51  1  0  0  0  0
 28 52  1  0  0  0  0
 29 53  1  0  0  0  0
 29 54  1  0  0  0  0
M  END
$$$$
