
 OpenBabel07202414173D

 50 54  0  0  1  0  0  0  0  0999 V2000
    0.8937   -0.0361   -0.0656 Cl  0  0  0  0  0  0  0  0  0  0  0  0
    2.6097   -0.0680    0.0544 C   0  0  0  0  0  0  0  0  0  0  0  0
    3.3316    1.1101   -0.1084 C   0  0  0  0  0  0  0  0  0  0  0  0
    4.7252    1.0772   -0.0595 C   0  0  0  0  0  0  0  0  0  0  0  0
    5.4077   -0.1341    0.1509 C   0  0  0  0  0  0  0  0  0  0  0  0
    4.6728   -1.3204    0.3405 C   0  0  0  0  0  0  0  0  0  0  0  0
    3.2687   -1.2749    0.2901 C   0  0  0  0  0  0  0  0  0  0  0  0
    5.3828   -2.6449    0.5555 C   0  0  3  0  0  0  0  0  0  0  0  0
    5.3039   -3.1446    2.0013 C   0  0  0  0  0  0  0  0  0  0  0  0
    4.3871   -3.8911    2.3394 O   0  0  0  0  0  0  0  0  0  0  0  0
    6.2815   -2.6433    2.8411 N   0  0  0  0  0  0  0  0  0  0  0  0
    6.3927   -2.8468    4.2416 C   0  0  0  0  0  0  0  0  0  0  0  0
    5.6251   -3.7915    4.9258 C   0  0  0  0  0  0  0  0  0  0  0  0
    5.5647   -3.9064    6.2728 N   0  0  0  0  0  0  0  0  0  0  0  0
    6.3383   -3.0601    6.9792 C   0  0  0  0  0  0  0  0  0  0  0  0
    7.2410   -2.1586    6.4183 C   0  0  0  0  0  0  0  0  0  0  0  0
    8.0905   -1.3889    7.2334 C   0  0  0  0  0  0  0  0  0  0  0  0
    9.0147   -0.5125    6.6710 C   0  0  0  0  0  0  0  0  0  0  0  0
    9.0805   -0.3758    5.2920 C   0  0  0  0  0  0  0  0  0  0  0  0
    8.2232   -1.1190    4.4740 C   0  0  0  0  0  0  0  0  0  0  0  0
    7.2857   -2.0429    5.0085 C   0  0  0  0  0  0  0  0  0  0  0  0
    6.8179   -2.6151    0.0242 C   0  0  0  0  0  0  0  0  0  0  0  0
    7.5527   -1.4053    0.5248 N   0  0  0  0  0  0  0  0  0  0  0  0
    9.2406   -1.4451    0.2069 S   0  0  0  0  0  0  0  0  0  0  0  0
    9.7998   -0.1466    0.5221 O   0  0  0  0  0  0  0  0  0  0  0  0
    9.7774   -2.6444    0.8068 O   0  0  0  0  0  0  0  0  0  0  0  0
    9.5034   -1.6579   -1.5326 C   0  0  0  0  0  0  0  0  0  0  0  0
    8.5701   -1.7964   -2.4617 N   0  0  0  0  0  0  0  0  0  0  0  0
    9.2451   -2.0403   -3.6282 C   0  0  0  0  0  0  0  0  0  0  0  0
   10.6025   -2.0169   -3.4174 C   0  0  0  0  0  0  0  0  0  0  0  0
   10.7542   -1.7641   -2.0821 N   0  0  0  0  0  0  0  0  0  0  0  0
    6.9197   -0.1368    0.0725 C   0  0  0  0  0  0  0  0  0  0  0  0
    2.8185    2.0512   -0.2896 H   0  0  0  0  0  0  0  0  0  0  0  0
    5.2791    2.0029   -0.2092 H   0  0  0  0  0  0  0  0  0  0  0  0
    2.6878   -2.1877    0.4142 H   0  0  0  0  0  0  0  0  0  0  0  0
    4.8613   -3.4050   -0.0449 H   0  0  0  0  0  0  0  0  0  0  0  0
    6.8917   -1.9454    2.4283 H   0  0  0  0  0  0  0  0  0  0  0  0
    5.0159   -4.5264    4.4097 H   0  0  0  0  0  0  0  0  0  0  0  0
    6.2124   -3.1378    8.0562 H   0  0  0  0  0  0  0  0  0  0  0  0
    8.0539   -1.4891    8.3167 H   0  0  0  0  0  0  0  0  0  0  0  0
    9.6886    0.0530    7.3092 H   0  0  0  0  0  0  0  0  0  0  0  0
    9.8015    0.3035    4.8437 H   0  0  0  0  0  0  0  0  0  0  0  0
    8.3393   -0.9844    3.4029 H   0  0  0  0  0  0  0  0  0  0  0  0
    6.7752   -2.5959   -1.0686 H   0  0  0  0  0  0  0  0  0  0  0  0
    7.3449   -3.5250    0.3314 H   0  0  0  0  0  0  0  0  0  0  0  0
    8.7188   -2.2258   -4.5568 H   0  0  0  0  0  0  0  0  0  0  0  0
   11.4456   -2.1640   -4.0769 H   0  0  0  0  0  0  0  0  0  0  0  0
   11.6206   -1.7000   -1.5655 H   0  0  0  0  0  0  0  0  0  0  0  0
    7.1982    0.0776   -0.9650 H   0  0  0  0  0  0  0  0  0  0  0  0
    7.2898    0.6713    0.7159 H   0  0  0  0  0  0  0  0  0  0  0  0
  1  2  1  0  0  0  0
  2  3  1  0  0  0  0
  2  7  2  0  0  0  0
  3  4  2  0  0  0  0
  3 33  1  0  0  0  0
  4  5  1  0  0  0  0
  4 34  1  0  0  0  0
  5  6  2  0  0  0  0
  5 32  1  0  0  0  0
  6  7  1  0  0  0  0
  6  8  1  0  0  0  0
  7 35  1  0  0  0  0
  8  9  1  0  0  0  0
  8 22  1  0  0  0  0
  8 36  1  0  0  0  0
  9 10  2  0  0  0  0
  9 11  1  0  0  0  0
 11 12  1  0  0  0  0
 11 37  1  0  0  0  0
 12 13  1  0  0  0  0
 12 21  2  0  0  0  0
 13 14  2  0  0  0  0
 13 38  1  0  0  0  0
 14 15  1  0  0  0  0
 15 16  2  0  0  0  0
 15 39  1  0  0  0  0
 16 17  1  0  0  0  0
 16 21  1  0  0  0  0
 17 18  2  0  0  0  0
 17 40  1  0  0  0  0
 18 19  1  0  0  0  0
 18 41  1  0  0  0  0
 19 20  2  0  0  0  0
 19 42  1  0  0  0  0
 20 21  1  0  0  0  0
 20 43  1  0  0  0  0
 22 23  1  0  0  0  0
 22 44  1  0  0  0  0
 22 45  1  0  0  0  0
 23 24  1  0  0  0  0
 23 32  1  0  0  0  0
 24 25  2  0  0  0  0
 24 26  2  0  0  0  0
 24 27  1  0  0  0  0
 27 28  2  0  0  0  0
 27 31  1  0  0  0  0
 28 29  1  0  0  0  0
 29 30  2  0  0  0  0
 29 46  1  0  0  0  0
 30 31  1  0  0  0  0
 30 47  1  0  0  0  0
 31 48  1  0  0  0  0
 32 49  1  0  0  0  0
 32 50  1  0  0  0  0
M  END
$$$$
