
 OpenBabel07202414163D

 40 42  0  0  1  0  0  0  0  0999 V2000
    1.2407    1.7371    1.7012 C   0  0  0  0  0  0  0  0  0  0  0  0
    0.7104    0.8829    0.5840 C   0  0  0  0  0  0  0  0  0  0  0  0
    1.4862   -0.2246    0.1965 C   0  0  0  0  0  0  0  0  0  0  0  0
    1.0325   -1.0590   -0.8141 C   0  0  0  0  0  0  0  0  0  0  0  0
   -0.1410   -0.8855   -1.4401 N   0  0  0  0  0  0  0  0  0  0  0  0
   -0.8796    0.1875   -1.0581 C   0  0  0  0  0  0  0  0  0  0  0  0
   -0.5117    1.1176   -0.0765 C   0  0  0  0  0  0  0  0  0  0  0  0
   -1.3245    2.2356    0.2621 N   0  0  0  0  0  0  0  0  0  0  0  0
   -2.3825    2.7114   -0.5123 C   0  0  0  0  0  0  0  0  0  0  0  0
   -2.6883    2.2865   -1.6251 O   0  0  0  0  0  0  0  0  0  0  0  0
   -3.1573    3.8731    0.0989 C   0  0  0  0  0  0  0  0  0  0  0  0
   -4.6484    3.6087    0.1530 C   0  0  0  0  0  0  0  0  0  0  0  0
   -5.4823    3.9296   -0.9321 C   0  0  0  0  0  0  0  0  0  0  0  0
   -6.8585    3.6650   -0.8937 C   0  0  0  0  0  0  0  0  0  0  0  0
   -7.4089    3.0232    0.2116 C   0  0  0  0  0  0  0  0  0  0  0  0
   -6.5865    2.7037    1.2930 C   0  0  0  0  0  0  0  0  0  0  0  0
   -5.2208    2.9980    1.2745 C   0  0  0  0  0  0  0  0  0  0  0  0
   -7.2661    1.9441    2.6814 Cl  0  0  0  0  0  0  0  0  0  0  0  0
   -7.5661    4.0863   -1.9937 O   0  0  0  0  0  0  0  0  0  0  0  0
   -9.0025    4.1878   -1.9276 C   0  0  3  0  0  0  0  0  0  0  0  0
   -9.6386    5.0919   -3.0092 C   0  0  0  0  0  0  0  0  0  0  0  0
   -9.8990    6.0524   -1.8482 C   0  0  0  0  0  0  0  0  0  0  0  0
  -10.1859    7.2142   -1.6984 O   0  0  0  0  0  0  0  0  0  0  0  0
   -9.5735    5.1056   -0.9309 N   0  0  0  0  0  0  0  0  0  0  0  0
    2.3075    1.5440    1.8735 H   0  0  0  0  0  0  0  0  0  0  0  0
    0.7086    1.5143    2.6307 H   0  0  0  0  0  0  0  0  0  0  0  0
    1.1514    2.8006    1.4661 H   0  0  0  0  0  0  0  0  0  0  0  0
    2.4422   -0.4425    0.6625 H   0  0  0  0  0  0  0  0  0  0  0  0
    1.6164   -1.9107   -1.1503 H   0  0  0  0  0  0  0  0  0  0  0  0
   -1.8277    0.2453   -1.5817 H   0  0  0  0  0  0  0  0  0  0  0  0
   -1.0304    2.7844    1.0590 H   0  0  0  0  0  0  0  0  0  0  0  0
   -2.9608    4.7594   -0.5182 H   0  0  0  0  0  0  0  0  0  0  0  0
   -2.7865    4.1132    1.1016 H   0  0  0  0  0  0  0  0  0  0  0  0
   -5.0616    4.3881   -1.8264 H   0  0  0  0  0  0  0  0  0  0  0  0
   -8.4615    2.7636    0.2533 H   0  0  0  0  0  0  0  0  0  0  0  0
   -4.6051    2.7416    2.1330 H   0  0  0  0  0  0  0  0  0  0  0  0
   -9.4757    3.1982   -1.8880 H   0  0  0  0  0  0  0  0  0  0  0  0
  -10.5452    4.7110   -3.4857 H   0  0  0  0  0  0  0  0  0  0  0  0
   -8.9520    5.4913   -3.7598 H   0  0  0  0  0  0  0  0  0  0  0  0
   -9.1388    5.4356   -0.0813 H   0  0  0  0  0  0  0  0  0  0  0  0
  1  2  1  0  0  0  0
  1 25  1  0  0  0  0
  1 26  1  0  0  0  0
  1 27  1  0  0  0  0
  2  3  1  0  0  0  0
  2  7  2  0  0  0  0
  3  4  2  0  0  0  0
  3 28  1  0  0  0  0
  4  5  1  0  0  0  0
  4 29  1  0  0  0  0
  5  6  2  0  0  0  0
  6  7  1  0  0  0  0
  6 30  1  0  0  0  0
  7  8  1  0  0  0  0
  8  9  1  0  0  0  0
  8 31  1  0  0  0  0
  9 10  2  0  0  0  0
  9 11  1  0  0  0  0
 11 12  1  0  0  0  0
 11 32  1  0  0  0  0
 11 33  1  0  0  0  0
 12 13  1  0  0  0  0
 12 17  2  0  0  0  0
 13 14  2  0  0  0  0
 13 34  1  0  0  0  0
 14 15  1  0  0  0  0
 14 19  1  0  0  0  0
 15 16  2  0  0  0  0
 15 35  1  0  0  0  0
 16 17  1  0  0  0  0
 16 18  1  0  0  0  0
 17 36  1  0  0  0  0
 19 20  1  0  0  0  0
 20 21  1  0  0  0  0
 20 24  1  0  0  0  0
 20 37  1  0  0  0  0
 21 22  1  0  0  0  0
 21 38  1  0  0  0  0
 21 39  1  0  0  0  0
 22 23  2  0  0  0  0
 22 24  1  0  0  0  0
 24 40  1  0  0  0  0
M  END
$$$$
