
 OpenBabel07202414133D

 36 38  0  0  0  0  0  0  0  0999 V2000
    0.6667    1.7150    0.3891 C   0  0  0  0  0  0  0  0  0  0  0  0
    2.1255    1.4155    0.1003 C   0  0  0  0  0  0  0  0  0  0  0  0
    2.7703    1.0768    1.3343 O   0  0  0  0  0  0  0  0  0  0  0  0
    4.1011    1.4152    1.4085 C   0  0  0  0  0  0  0  0  0  0  0  0
    4.9365    1.3800    0.2864 C   0  0  0  0  0  0  0  0  0  0  0  0
    6.2754    1.7337    0.4040 C   0  0  0  0  0  0  0  0  0  0  0  0
    6.7865    2.1058    1.6510 C   0  0  0  0  0  0  0  0  0  0  0  0
    5.9730    2.0877    2.7870 C   0  0  0  0  0  0  0  0  0  0  0  0
    4.6205    1.7354    2.6912 C   0  0  0  0  0  0  0  0  0  0  0  0
    3.7955    1.4011    3.9100 C   0  0  0  0  0  0  0  0  0  0  0  0
    3.9469    2.1216    5.2004 N   0  0  0  0  0  0  0  0  0  0  0  0
    3.0658    3.2597    5.3692 C   0  0  0  0  0  0  0  0  0  0  0  0
    3.4906    4.5192    5.7822 C   0  0  0  0  0  0  0  0  0  0  0  0
    2.5701    5.3750    6.4382 C   0  0  0  0  0  0  0  0  0  0  0  0
    1.2308    4.9930    6.6405 C   0  0  0  0  0  0  0  0  0  0  0  0
    0.8064    3.7215    6.2901 C   0  0  0  0  0  0  0  0  0  0  0  0
    1.7824    2.8807    5.7769 C   0  0  0  0  0  0  0  0  0  0  0  0
    1.8860    1.4894    6.1796 C   0  0  0  0  0  0  0  0  0  0  0  0
    0.9905    0.7404    6.4827 O   0  0  0  0  0  0  0  0  0  0  0  0
    3.4157    1.1993    6.1488 C   0  0  0  0  0  0  0  0  0  0  0  0
    4.0032    0.4182    6.8625 O   0  0  0  0  0  0  0  0  0  0  0  0
    0.0542    6.1109    7.6117 Br  0  0  0  0  0  0  0  0  0  0  0  0
    0.1291    1.9457   -0.5352 H   0  0  0  0  0  0  0  0  0  0  0  0
    0.5839    2.5724    1.0655 H   0  0  0  0  0  0  0  0  0  0  0  0
    0.1821    0.8672    0.8827 H   0  0  0  0  0  0  0  0  0  0  0  0
    2.5687    2.3068   -0.3606 H   0  0  0  0  0  0  0  0  0  0  0  0
    2.2021    0.5685   -0.5910 H   0  0  0  0  0  0  0  0  0  0  0  0
    4.5695    1.0464   -0.6812 H   0  0  0  0  0  0  0  0  0  0  0  0
    6.9206    1.7001   -0.4708 H   0  0  0  0  0  0  0  0  0  0  0  0
    7.8382    2.3608    1.7333 H   0  0  0  0  0  0  0  0  0  0  0  0
    6.4185    2.2925    3.7574 H   0  0  0  0  0  0  0  0  0  0  0  0
    4.0503    0.3466    4.1131 H   0  0  0  0  0  0  0  0  0  0  0  0
    2.7288    1.3893    3.6511 H   0  0  0  0  0  0  0  0  0  0  0  0
    4.5408    4.7918    5.7570 H   0  0  0  0  0  0  0  0  0  0  0  0
    2.9265    6.3091    6.8720 H   0  0  0  0  0  0  0  0  0  0  0  0
   -0.1768    3.3419    6.5611 H   0  0  0  0  0  0  0  0  0  0  0  0
  1  2  1  0  0  0  0
  1 23  1  0  0  0  0
  1 24  1  0  0  0  0
  1 25  1  0  0  0  0
  2  3  1  0  0  0  0
  2 26  1  0  0  0  0
  2 27  1  0  0  0  0
  3  4  1  0  0  0  0
  4  5  1  0  0  0  0
  4  9  2  0  0  0  0
  5  6  2  0  0  0  0
  5 28  1  0  0  0  0
  6  7  1  0  0  0  0
  6 29  1  0  0  0  0
  7  8  2  0  0  0  0
  7 30  1  0  0  0  0
  8  9  1  0  0  0  0
  8 31  1  0  0  0  0
  9 10  1  0  0  0  0
 10 11  1  0  0  0  0
 10 32  1  0  0  0  0
 10 33  1  0  0  0  0
 11 12  1  0  0  0  0
 11 20  1  0  0  0  0
 12 13  1  0  0  0  0
 12 17  2  0  0  0  0
 13 14  2  0  0  0  0
 13 34  1  0  0  0  0
 14 15  1  0  0  0  0
 14 35  1  0  0  0  0
 15 16  2  0  0  0  0
 15 22  1  0  0  0  0
 16 17  1  0  0  0  0
 16 36  1  0  0  0  0
 17 18  1  0  0  0  0
 18 19  2  0  0  0  0
 18 20  1  0  0  0  0
 20 21  2  0  0  0  0
M  END
$$$$
