
 OpenBabel07202414153D

 45 47  0  0  1  0  0  0  0  0999 V2000
    0.8262    0.0087    0.1012 C   0  0  0  0  0  0  0  0  0  0  0  0
    2.2462   -0.0255    0.1083 O   0  0  0  0  0  0  0  0  0  0  0  0
    2.7510   -1.2795    0.5647 C   0  0  0  0  0  0  0  0  0  0  0  0
    4.2730   -1.2014    0.5814 C   0  0  0  0  0  0  0  0  0  0  0  0
    4.8348   -2.4033    1.1205 O   0  0  0  0  0  0  0  0  0  0  0  0
    6.2805   -2.3975    1.0862 C   0  0  3  0  0  0  0  0  0  0  0  0
    6.8277   -1.2916    1.9677 C   0  0  0  0  0  0  0  0  0  0  0  0
    6.5698   -1.2848    3.3469 C   0  0  0  0  0  0  0  0  0  0  0  0
    6.9816   -0.2068    4.1325 C   0  0  0  0  0  0  0  0  0  0  0  0
    7.6376    0.8807    3.5514 C   0  0  0  0  0  0  0  0  0  0  0  0
    7.9212    0.8712    2.1795 C   0  0  0  0  0  0  0  0  0  0  0  0
    7.5230   -0.2150    1.3946 C   0  0  0  0  0  0  0  0  0  0  0  0
    8.7060    2.1884    1.3867 Cl  0  0  0  0  0  0  0  0  0  0  0  0
    8.0546    2.2075    4.5741 Cl  0  0  0  0  0  0  0  0  0  0  0  0
    6.8464   -3.7651    1.5384 C   0  0  0  0  0  0  0  0  0  0  0  0
    8.0359   -4.0519    1.4366 O   0  0  0  0  0  0  0  0  0  0  0  0
    5.8689   -4.6000    2.0515 N   0  0  0  0  0  0  0  0  0  0  0  0
    6.1065   -5.8856    2.5770 C   0  0  0  0  0  0  0  0  0  0  0  0
    7.2492   -6.1631    3.3298 C   0  0  0  0  0  0  0  0  0  0  0  0
    7.5008   -7.3529    3.9204 N   0  0  0  0  0  0  0  0  0  0  0  0
    6.5871   -8.3255    3.7199 C   0  0  0  0  0  0  0  0  0  0  0  0
    5.4224   -8.1797    2.9660 C   0  0  0  0  0  0  0  0  0  0  0  0
    5.1615   -6.9202    2.3783 C   0  0  0  0  0  0  0  0  0  0  0  0
    4.0031   -6.7943    1.5732 C   0  0  0  0  0  0  0  0  0  0  0  0
    3.1451   -7.8743    1.3568 C   0  0  0  0  0  0  0  0  0  0  0  0
    3.4126   -9.1017    1.9488 C   0  0  0  0  0  0  0  0  0  0  0  0
    4.5410   -9.2530    2.7533 C   0  0  0  0  0  0  0  0  0  0  0  0
    0.5103    1.0058   -0.2191 H   0  0  0  0  0  0  0  0  0  0  0  0
    0.4306   -0.1776    1.1037 H   0  0  0  0  0  0  0  0  0  0  0  0
    0.4334   -0.7275   -0.6052 H   0  0  0  0  0  0  0  0  0  0  0  0
    2.4216   -2.0863   -0.1007 H   0  0  0  0  0  0  0  0  0  0  0  0
    2.3766   -1.4955    1.5719 H   0  0  0  0  0  0  0  0  0  0  0  0
    4.5590   -0.3387    1.1929 H   0  0  0  0  0  0  0  0  0  0  0  0
    4.6486   -1.0288   -0.4345 H   0  0  0  0  0  0  0  0  0  0  0  0
    6.5940   -2.2739    0.0429 H   0  0  0  0  0  0  0  0  0  0  0  0
    6.0328   -2.1074    3.8167 H   0  0  0  0  0  0  0  0  0  0  0  0
    6.7641   -0.2114    5.1993 H   0  0  0  0  0  0  0  0  0  0  0  0
    7.7319   -0.2069    0.3270 H   0  0  0  0  0  0  0  0  0  0  0  0
    4.9186   -4.3231    1.8272 H   0  0  0  0  0  0  0  0  0  0  0  0
    7.9979   -5.4022    3.5307 H   0  0  0  0  0  0  0  0  0  0  0  0
    6.8354   -9.2723    4.1923 H   0  0  0  0  0  0  0  0  0  0  0  0
    3.7732   -5.8649    1.0627 H   0  0  0  0  0  0  0  0  0  0  0  0
    2.2808   -7.7567    0.7087 H   0  0  0  0  0  0  0  0  0  0  0  0
    2.7506   -9.9460    1.7725 H   0  0  0  0  0  0  0  0  0  0  0  0
    4.7433  -10.2267    3.1963 H   0  0  0  0  0  0  0  0  0  0  0  0
  1  2  1  0  0  0  0
  1 28  1  0  0  0  0
  1 29  1  0  0  0  0
  1 30  1  0  0  0  0
  2  3  1  0  0  0  0
  3  4  1  0  0  0  0
  3 31  1  0  0  0  0
  3 32  1  0  0  0  0
  4  5  1  0  0  0  0
  4 33  1  0  0  0  0
  4 34  1  0  0  0  0
  5  6  1  0  0  0  0
  6  7  1  0  0  0  0
  6 15  1  0  0  0  0
  6 35  1  0  0  0  0
  7  8  1  0  0  0  0
  7 12  2  0  0  0  0
  8  9  2  0  0  0  0
  8 36  1  0  0  0  0
  9 10  1  0  0  0  0
  9 37  1  0  0  0  0
 10 11  2  0  0  0  0
 10 14  1  0  0  0  0
 11 12  1  0  0  0  0
 11 13  1  0  0  0  0
 12 38  1  0  0  0  0
 15 16  2  0  0  0  0
 15 17  1  0  0  0  0
 17 18  1  0  0  0  0
 17 39  1  0  0  0  0
 18 19  1  0  0  0  0
 18 23  2  0  0  0  0
 19 20  2  0  0  0  0
 19 40  1  0  0  0  0
 20 21  1  0  0  0  0
 21 22  2  0  0  0  0
 21 41  1  0  0  0  0
 22 23  1  0  0  0  0
 22 27  1  0  0  0  0
 23 24  1  0  0  0  0
 24 25  2  0  0  0  0
 24 42  1  0  0  0  0
 25 26  1  0  0  0  0
 25 43  1  0  0  0  0
 26 27  2  0  0  0  0
 26 44  1  0  0  0  0
 27 45  1  0  0  0  0
M  END
$$$$
