
 OpenBabel07202414123D

 40 41  0  0  1  0  0  0  0  0999 V2000
    1.1703    0.5741    0.7608 C   0  0  0  0  0  0  0  0  0  0  0  0
    2.4694    0.0910    0.1099 C   0  0  3  0  0  0  0  0  0  0  0  0
    3.4649    1.1501    0.0819 N   0  0  0  0  0  0  0  0  0  0  0  0
    3.4836    2.1057   -0.9126 C   0  0  0  0  0  0  0  0  0  0  0  0
    2.7620    2.0474   -1.9058 O   0  0  0  0  0  0  0  0  0  0  0  0
    4.5343    3.1915   -0.7582 C   0  0  0  0  0  0  0  0  0  0  0  0
    4.7849    3.6121    0.9540 Cl  0  0  0  0  0  0  0  0  0  0  0  0
    2.9636   -1.1623    0.8149 C   0  0  0  0  0  0  0  0  0  0  0  0
    2.5408   -2.4131    0.3450 C   0  0  0  0  0  0  0  0  0  0  0  0
    2.8905   -3.5749    1.0252 C   0  0  0  0  0  0  0  0  0  0  0  0
    2.3443   -5.0998    0.4430 Cl  0  0  0  0  0  0  0  0  0  0  0  0
    3.6607   -3.5152    2.1855 C   0  0  0  0  0  0  0  0  0  0  0  0
    4.1224   -2.2868    2.6868 C   0  0  0  0  0  0  0  0  0  0  0  0
    4.9420   -2.2129    3.9227 C   0  0  0  0  0  0  0  0  0  0  0  0
    5.8125   -3.2578    4.2948 C   0  0  0  0  0  0  0  0  0  0  0  0
    6.5915   -3.1854    5.4541 C   0  0  0  0  0  0  0  0  0  0  0  0
    6.5316   -2.0432    6.2485 C   0  0  0  0  0  0  0  0  0  0  0  0
    7.5630   -1.9085    7.6741 S   0  0  0  0  0  0  0  0  0  0  0  0
    8.9156   -1.1632    7.0173 N   0  0  0  0  0  0  0  0  0  0  0  0
    6.9868   -0.9554    8.5901 O   0  0  0  0  0  0  0  0  0  0  0  0
    7.9887   -3.2262    8.0841 O   0  0  0  0  0  0  0  0  0  0  0  0
    5.6681   -1.0003    5.9259 C   0  0  0  0  0  0  0  0  0  0  0  0
    4.8810   -1.0920    4.7755 C   0  0  0  0  0  0  0  0  0  0  0  0
    3.7604   -1.1222    1.9748 C   0  0  0  0  0  0  0  0  0  0  0  0
    0.7754    1.4581    0.2495 H   0  0  0  0  0  0  0  0  0  0  0  0
    1.3227    0.8416    1.8132 H   0  0  0  0  0  0  0  0  0  0  0  0
    0.4000   -0.2054    0.7259 H   0  0  0  0  0  0  0  0  0  0  0  0
    2.2507   -0.1672   -0.9346 H   0  0  0  0  0  0  0  0  0  0  0  0
    3.9383    1.3996    0.9416 H   0  0  0  0  0  0  0  0  0  0  0  0
    4.2047    4.0947   -1.2780 H   0  0  0  0  0  0  0  0  0  0  0  0
    5.4820    2.8429   -1.1764 H   0  0  0  0  0  0  0  0  0  0  0  0
    1.9188   -2.4807   -0.5452 H   0  0  0  0  0  0  0  0  0  0  0  0
    3.8808   -4.4430    2.7076 H   0  0  0  0  0  0  0  0  0  0  0  0
    5.9126   -4.1461    3.6737 H   0  0  0  0  0  0  0  0  0  0  0  0
    7.2491   -4.0128    5.7137 H   0  0  0  0  0  0  0  0  0  0  0  0
    9.0445   -0.2400    7.4307 H   0  0  0  0  0  0  0  0  0  0  0  0
    9.7252   -1.7776    7.0919 H   0  0  0  0  0  0  0  0  0  0  0  0
    5.6071   -0.1122    6.5507 H   0  0  0  0  0  0  0  0  0  0  0  0
    4.2089   -0.2640    4.5600 H   0  0  0  0  0  0  0  0  0  0  0  0
    4.1053   -0.1585    2.3399 H   0  0  0  0  0  0  0  0  0  0  0  0
  1  2  1  0  0  0  0
  1 25  1  0  0  0  0
  1 26  1  0  0  0  0
  1 27  1  0  0  0  0
  2  3  1  0  0  0  0
  2  8  1  0  0  0  0
  2 28  1  0  0  0  0
  3  4  1  0  0  0  0
  3 29  1  0  0  0  0
  4  5  2  0  0  0  0
  4  6  1  0  0  0  0
  6  7  1  0  0  0  0
  6 30  1  0  0  0  0
  6 31  1  0  0  0  0
  8  9  1  0  0  0  0
  8 24  2  0  0  0  0
  9 10  2  0  0  0  0
  9 32  1  0  0  0  0
 10 11  1  0  0  0  0
 10 12  1  0  0  0  0
 12 13  2  0  0  0  0
 12 33  1  0  0  0  0
 13 14  1  0  0  0  0
 13 24  1  0  0  0  0
 14 15  1  0  0  0  0
 14 23  2  0  0  0  0
 15 16  2  0  0  0  0
 15 34  1  0  0  0  0
 16 17  1  0  0  0  0
 16 35  1  0  0  0  0
 17 18  1  0  0  0  0
 17 22  2  0  0  0  0
 18 19  1  0  0  0  0
 18 20  2  0  0  0  0
 18 21  2  0  0  0  0
 19 36  1  0  0  0  0
 19 37  1  0  0  0  0
 22 23  1  0  0  0  0
 22 38  1  0  0  0  0
 23 39  1  0  0  0  0
 24 40  1  0  0  0  0
M  END
$$$$
