
 OpenBabel07202414153D

 46 48  0  0  1  0  0  0  0  0999 V2000
    1.0080    0.2582    0.5601 C   0  0  0  0  0  0  0  0  0  0  0  0
    2.2987   -0.0722    0.0623 O   0  0  0  0  0  0  0  0  0  0  0  0
    3.0068    0.9311   -0.5381 C   0  0  0  0  0  0  0  0  0  0  0  0
    2.7464    2.2914   -0.2701 C   0  0  0  0  0  0  0  0  0  0  0  0
    3.5133    3.3027   -0.8627 C   0  0  0  0  0  0  0  0  0  0  0  0
    4.5532    2.9706   -1.7191 C   0  0  0  0  0  0  0  0  0  0  0  0
    4.8271    1.6260   -1.9825 C   0  0  0  0  0  0  0  0  0  0  0  0
    4.0725    0.6044   -1.3912 C   0  0  0  0  0  0  0  0  0  0  0  0
    4.5398   -0.6323   -1.7578 O   0  0  0  0  0  0  0  0  0  0  0  0
    3.8383   -1.8086   -1.3496 C   0  0  0  0  0  0  0  0  0  0  0  0
    4.5310   -3.0300   -2.0163 C   0  0  3  0  0  0  0  0  0  0  0  0
    6.0016   -3.0965   -1.5900 C   0  0  0  0  0  0  0  0  0  0  0  0
    3.8706   -4.3333   -1.7607 N   0  0  0  0  0  0  0  0  0  0  0  0
    2.5555   -4.5174   -2.0915 C   0  0  0  0  0  0  0  0  0  0  0  0
    1.8087   -3.5867   -2.3995 O   0  0  0  0  0  0  0  0  0  0  0  0
    2.0798   -5.9272   -2.2185 C   0  0  0  0  0  0  0  0  0  0  0  0
    0.9801   -6.0491   -2.9870 C   0  0  0  0  0  0  0  0  0  0  0  0
    0.6510   -7.3630   -3.5697 C   0  0  0  0  0  0  0  0  0  0  0  0
    0.0305   -7.4500   -4.6472 O   0  0  0  0  0  0  0  0  0  0  0  0
    1.0521   -8.4382   -2.8604 N   0  0  0  0  0  0  0  0  0  0  0  0
    1.6434   -8.2699   -1.6064 C   0  0  0  0  0  0  0  0  0  0  0  0
    1.3301   -9.1718   -0.5964 C   0  0  0  0  0  0  0  0  0  0  0  0
    1.8035   -8.9084    0.6773 C   0  0  0  0  0  0  0  0  0  0  0  0
    1.3444   -9.6288    1.7070 F   0  0  0  0  0  0  0  0  0  0  0  0
    2.6952   -7.8656    0.9113 C   0  0  0  0  0  0  0  0  0  0  0  0
    2.9998   -6.9570   -0.1063 C   0  0  0  0  0  0  0  0  0  0  0  0
    2.3675   -7.0867   -1.3454 C   0  0  0  0  0  0  0  0  0  0  0  0
    0.5053   -0.6699    0.8491 H   0  0  0  0  0  0  0  0  0  0  0  0
    0.3968    0.7454   -0.2095 H   0  0  0  0  0  0  0  0  0  0  0  0
    1.0818    0.8825    1.4581 H   0  0  0  0  0  0  0  0  0  0  0  0
    1.9716    2.5996    0.4143 H   0  0  0  0  0  0  0  0  0  0  0  0
    3.3088    4.3412   -0.6374 H   0  0  0  0  0  0  0  0  0  0  0  0
    5.1538    3.7436   -2.1863 H   0  0  0  0  0  0  0  0  0  0  0  0
    5.6453    1.3714   -2.6493 H   0  0  0  0  0  0  0  0  0  0  0  0
    2.8020   -1.7237   -1.6735 H   0  0  0  0  0  0  0  0  0  0  0  0
    3.8858   -1.9212   -0.2615 H   0  0  0  0  0  0  0  0  0  0  0  0
    4.5109   -2.8814   -3.1064 H   0  0  0  0  0  0  0  0  0  0  0  0
    6.0891   -3.2206   -0.5034 H   0  0  0  0  0  0  0  0  0  0  0  0
    6.5423   -2.1865   -1.8712 H   0  0  0  0  0  0  0  0  0  0  0  0
    6.5112   -3.9425   -2.0627 H   0  0  0  0  0  0  0  0  0  0  0  0
    4.4775   -5.1454   -1.8286 H   0  0  0  0  0  0  0  0  0  0  0  0
    0.3695   -5.2121   -3.3126 H   0  0  0  0  0  0  0  0  0  0  0  0
    0.7646   -9.3464   -3.2008 H   0  0  0  0  0  0  0  0  0  0  0  0
    0.6015   -9.9611   -0.7527 H   0  0  0  0  0  0  0  0  0  0  0  0
    3.0800   -7.7118    1.9188 H   0  0  0  0  0  0  0  0  0  0  0  0
    3.6192   -6.0980    0.1397 H   0  0  0  0  0  0  0  0  0  0  0  0
  1  2  1  0  0  0  0
  1 28  1  0  0  0  0
  1 29  1  0  0  0  0
  1 30  1  0  0  0  0
  2  3  1  0  0  0  0
  3  4  1  0  0  0  0
  3  8  2  0  0  0  0
  4  5  2  0  0  0  0
  4 31  1  0  0  0  0
  5  6  1  0  0  0  0
  5 32  1  0  0  0  0
  6  7  2  0  0  0  0
  6 33  1  0  0  0  0
  7  8  1  0  0  0  0
  7 34  1  0  0  0  0
  8  9  1  0  0  0  0
  9 10  1  0  0  0  0
 10 11  1  0  0  0  0
 10 35  1  0  0  0  0
 10 36  1  0  0  0  0
 11 12  1  0  0  0  0
 11 13  1  0  0  0  0
 11 37  1  0  0  0  0
 12 38  1  0  0  0  0
 12 39  1  0  0  0  0
 12 40  1  0  0  0  0
 13 14  1  0  0  0  0
 13 41  1  0  0  0  0
 14 15  2  0  0  0  0
 14 16  1  0  0  0  0
 16 17  2  0  0  0  0
 16 27  1  0  0  0  0
 17 18  1  0  0  0  0
 17 42  1  0  0  0  0
 18 19  2  0  0  0  0
 18 20  1  0  0  0  0
 20 21  1  0  0  0  0
 20 43  1  0  0  0  0
 21 22  1  0  0  0  0
 21 27  2  0  0  0  0
 22 23  2  0  0  0  0
 22 44  1  0  0  0  0
 23 24  1  0  0  0  0
 23 25  1  0  0  0  0
 25 26  2  0  0  0  0
 25 45  1  0  0  0  0
 26 27  1  0  0  0  0
 26 46  1  0  0  0  0
M  END
$$$$
