
 OpenBabel07202414193D

 35 37  0  0  0  0  0  0  0  0999 V2000
    2.6012    1.1656   -0.0291 O   0  0  0  0  0  0  0  0  0  0  0  0
    2.2046    0.0048    0.0236 C   0  0  0  0  0  0  0  0  0  0  0  0
    0.7134   -0.2967    0.0141 C   0  0  0  0  0  0  0  0  0  0  0  0
    0.0585   -0.3580    1.3792 C   0  0  0  0  0  0  0  0  0  0  0  0
    0.4985    0.4226    2.4589 C   0  0  0  0  0  0  0  0  0  0  0  0
   -0.1698    0.3864    3.6865 C   0  0  0  0  0  0  0  0  0  0  0  0
   -1.2991   -0.4159    3.8493 C   0  0  0  0  0  0  0  0  0  0  0  0
   -1.7701   -1.1801    2.7792 C   0  0  0  0  0  0  0  0  0  0  0  0
   -2.9432   -1.9943    2.9337 C   0  0  0  0  0  0  0  0  0  0  0  0
   -3.8875   -2.6563    3.0496 N   0  0  0  0  0  0  0  0  0  0  0  0
   -1.0956   -1.1440    1.5497 C   0  0  0  0  0  0  0  0  0  0  0  0
    3.0168   -1.1175    0.0790 N   0  0  0  0  0  0  0  0  0  0  0  0
    4.4332   -1.1221    0.2374 C   0  0  0  0  0  0  0  0  0  0  0  0
    5.1396    0.0138    0.6422 C   0  0  0  0  0  0  0  0  0  0  0  0
    6.4641    0.0441    0.9204 N   0  0  0  0  0  0  0  0  0  0  0  0
    7.1288   -1.1207    0.8024 C   0  0  0  0  0  0  0  0  0  0  0  0
    6.5529   -2.3207    0.3936 C   0  0  0  0  0  0  0  0  0  0  0  0
    7.3241   -3.4939    0.3073 C   0  0  0  0  0  0  0  0  0  0  0  0
    6.7599   -4.6824   -0.1444 C   0  0  0  0  0  0  0  0  0  0  0  0
    5.4291   -4.7021   -0.5415 C   0  0  0  0  0  0  0  0  0  0  0  0
    4.6480   -3.5444   -0.4407 C   0  0  0  0  0  0  0  0  0  0  0  0
    5.1742   -2.3278    0.0639 C   0  0  0  0  0  0  0  0  0  0  0  0
    0.5486   -1.2364   -0.5266 H   0  0  0  0  0  0  0  0  0  0  0  0
    0.2209    0.4916   -0.5699 H   0  0  0  0  0  0  0  0  0  0  0  0
    1.3593    1.0835    2.3598 H   0  0  0  0  0  0  0  0  0  0  0  0
    0.1868    0.9969    4.5140 H   0  0  0  0  0  0  0  0  0  0  0  0
   -1.8123   -0.4288    4.8089 H   0  0  0  0  0  0  0  0  0  0  0  0
   -1.4841   -1.7232    0.7125 H   0  0  0  0  0  0  0  0  0  0  0  0
    2.5655   -2.0206    0.0293 H   0  0  0  0  0  0  0  0  0  0  0  0
    4.6583    0.9713    0.8083 H   0  0  0  0  0  0  0  0  0  0  0  0
    8.1856   -1.0560    1.0505 H   0  0  0  0  0  0  0  0  0  0  0  0
    8.3748   -3.4858    0.5925 H   0  0  0  0  0  0  0  0  0  0  0  0
    7.3633   -5.5853   -0.2019 H   0  0  0  0  0  0  0  0  0  0  0  0
    4.9967   -5.6188   -0.9356 H   0  0  0  0  0  0  0  0  0  0  0  0
    3.6237   -3.6060   -0.7976 H   0  0  0  0  0  0  0  0  0  0  0  0
  1  2  2  0  0  0  0
  2  3  1  0  0  0  0
  2 12  1  0  0  0  0
  3  4  1  0  0  0  0
  3 23  1  0  0  0  0
  3 24  1  0  0  0  0
  4  5  1  0  0  0  0
  4 11  2  0  0  0  0
  5  6  2  0  0  0  0
  5 25  1  0  0  0  0
  6  7  1  0  0  0  0
  6 26  1  0  0  0  0
  7  8  2  0  0  0  0
  7 27  1  0  0  0  0
  8  9  1  0  0  0  0
  8 11  1  0  0  0  0
  9 10  3  0  0  0  0
 11 28  1  0  0  0  0
 12 13  1  0  0  0  0
 12 29  1  0  0  0  0
 13 14  1  0  0  0  0
 13 22  2  0  0  0  0
 14 15  2  0  0  0  0
 14 30  1  0  0  0  0
 15 16  1  0  0  0  0
 16 17  2  0  0  0  0
 16 31  1  0  0  0  0
 17 18  1  0  0  0  0
 17 22  1  0  0  0  0
 18 19  2  0  0  0  0
 18 32  1  0  0  0  0
 19 20  1  0  0  0  0
 19 33  1  0  0  0  0
 20 21  2  0  0  0  0
 20 34  1  0  0  0  0
 21 22  1  0  0  0  0
 21 35  1  0  0  0  0
M  END
$$$$
