
 OpenBabel07202414133D

 54 56  0  0  0  0  0  0  0  0999 V2000
    8.6291   -0.3226   -0.1775 C   0  0  0  0  0  0  0  0  0  0  0  0
    7.3174   -1.0862   -0.0709 C   0  0  0  0  0  0  0  0  0  0  0  0
    6.2389   -0.3036    0.5987 N   0  0  0  0  0  0  0  0  0  0  0  0
    5.9831    1.0560    0.0237 C   0  0  0  0  0  0  0  0  0  0  0  0
    5.3791    1.0346   -1.3724 C   0  0  0  0  0  0  0  0  0  0  0  0
    4.8034   -1.2034    0.8966 S   0  0  0  0  0  0  0  0  0  0  0  0
    3.8752   -0.3356    1.6097 O   0  0  0  0  0  0  0  0  0  0  0  0
    4.4248   -1.8546   -0.3445 O   0  0  0  0  0  0  0  0  0  0  0  0
    5.3057   -2.4727    2.0474 C   0  0  0  0  0  0  0  0  0  0  0  0
    5.6513   -2.1348    3.3552 C   0  0  0  0  0  0  0  0  0  0  0  0
    5.9552   -3.1470    4.2819 C   0  0  0  0  0  0  0  0  0  0  0  0
    5.9047   -4.4938    3.9123 C   0  0  0  0  0  0  0  0  0  0  0  0
    5.5740   -4.8184    2.5893 C   0  0  0  0  0  0  0  0  0  0  0  0
    5.2681   -3.8184    1.6625 C   0  0  0  0  0  0  0  0  0  0  0  0
    6.1671   -5.5701    4.7986 N   0  0  0  0  0  0  0  0  0  0  0  0
    6.3187   -5.5114    6.1624 C   0  0  0  0  0  0  0  0  0  0  0  0
    6.1829   -4.5119    6.8629 O   0  0  0  0  0  0  0  0  0  0  0  0
    6.6937   -6.7562    6.6737 N   0  0  0  0  0  0  0  0  0  0  0  0
    6.8676   -6.9834    8.0236 C   0  0  0  0  0  0  0  0  0  0  0  0
    5.9758   -6.6233    8.9609 C   0  0  0  0  0  0  0  0  0  0  0  0
    6.1418   -6.9483   10.3113 N   0  0  0  0  0  0  0  0  0  0  0  0
    7.1244   -7.8761   10.6288 C   0  0  0  0  0  0  0  0  0  0  0  0
    7.0529   -8.7704   11.4626 O   0  0  0  0  0  0  0  0  0  0  0  0
    8.3604   -7.5940    9.8986 C   0  0  0  0  0  0  0  0  0  0  0  0
    8.2346   -7.3526    8.5274 C   0  0  0  0  0  0  0  0  0  0  0  0
    9.3972   -7.0321    7.8203 C   0  0  0  0  0  0  0  0  0  0  0  0
   10.5654   -6.7065    8.5219 C   0  0  0  0  0  0  0  0  0  0  0  0
   10.5849   -6.7104    9.9174 C   0  0  0  0  0  0  0  0  0  0  0  0
    9.4923   -7.2089   10.6152 C   0  0  0  0  0  0  0  0  0  0  0  0
    6.0606   -5.8663   11.2852 C   0  0  0  0  0  0  0  0  0  0  0  0
    9.4389   -1.0112   -0.4413 H   0  0  0  0  0  0  0  0  0  0  0  0
    8.8891    0.1689    0.7650 H   0  0  0  0  0  0  0  0  0  0  0  0
    8.5854    0.4385   -0.9636 H   0  0  0  0  0  0  0  0  0  0  0  0
    7.5154   -1.9828    0.5191 H   0  0  0  0  0  0  0  0  0  0  0  0
    6.9983   -1.4055   -1.0702 H   0  0  0  0  0  0  0  0  0  0  0  0
    6.9170    1.6266    0.0100 H   0  0  0  0  0  0  0  0  0  0  0  0
    5.3262    1.6175    0.7001 H   0  0  0  0  0  0  0  0  0  0  0  0
    5.8803    0.3240   -2.0346 H   0  0  0  0  0  0  0  0  0  0  0  0
    5.4562    2.0271   -1.8295 H   0  0  0  0  0  0  0  0  0  0  0  0
    4.3160    0.7751   -1.3385 H   0  0  0  0  0  0  0  0  0  0  0  0
    5.6676   -1.0932    3.6703 H   0  0  0  0  0  0  0  0  0  0  0  0
    6.2160   -2.8446    5.2924 H   0  0  0  0  0  0  0  0  0  0  0  0
    5.5298   -5.8572    2.2686 H   0  0  0  0  0  0  0  0  0  0  0  0
    4.9768   -4.0997    0.6429 H   0  0  0  0  0  0  0  0  0  0  0  0
    6.0526   -6.5016    4.4128 H   0  0  0  0  0  0  0  0  0  0  0  0
    7.3219   -7.2630    6.0587 H   0  0  0  0  0  0  0  0  0  0  0  0
    5.0491   -6.0922    8.7252 H   0  0  0  0  0  0  0  0  0  0  0  0
    9.3909   -6.8948    6.7458 H   0  0  0  0  0  0  0  0  0  0  0  0
   11.4373   -6.3517    7.9755 H   0  0  0  0  0  0  0  0  0  0  0  0
   11.4330   -6.2946   10.4577 H   0  0  0  0  0  0  0  0  0  0  0  0
    9.4673   -7.1788   11.7033 H   0  0  0  0  0  0  0  0  0  0  0  0
    5.0265   -5.5625   11.4468 H   0  0  0  0  0  0  0  0  0  0  0  0
    6.6580   -5.0233   10.9186 H   0  0  0  0  0  0  0  0  0  0  0  0
    6.5122   -6.1757   12.2389 H   0  0  0  0  0  0  0  0  0  0  0  0
  1  2  1  0  0  0  0
  1 31  1  0  0  0  0
  1 32  1  0  0  0  0
  1 33  1  0  0  0  0
  2  3  1  0  0  0  0
  2 34  1  0  0  0  0
  2 35  1  0  0  0  0
  3  4  1  0  0  0  0
  3  6  1  0  0  0  0
  4  5  1  0  0  0  0
  4 36  1  0  0  0  0
  4 37  1  0  0  0  0
  5 38  1  0  0  0  0
  5 39  1  0  0  0  0
  5 40  1  0  0  0  0
  6  7  2  0  0  0  0
  6  8  2  0  0  0  0
  6  9  1  0  0  0  0
  9 10  1  0  0  0  0
  9 14  2  0  0  0  0
 10 11  2  0  0  0  0
 10 41  1  0  0  0  0
 11 12  1  0  0  0  0
 11 42  1  0  0  0  0
 12 13  2  0  0  0  0
 12 15  1  0  0  0  0
 13 14  1  0  0  0  0
 13 43  1  0  0  0  0
 14 44  1  0  0  0  0
 15 16  1  0  0  0  0
 15 45  1  0  0  0  0
 16 17  2  0  0  0  0
 16 18  1  0  0  0  0
 18 19  1  0  0  0  0
 18 46  1  0  0  0  0
 19 20  2  0  0  0  0
 19 25  1  0  0  0  0
 20 21  1  0  0  0  0
 20 47  1  0  0  0  0
 21 22  1  0  0  0  0
 21 30  1  0  0  0  0
 22 23  2  0  0  0  0
 22 24  1  0  0  0  0
 24 25  1  0  0  0  0
 24 29  2  0  0  0  0
 25 26  2  0  0  0  0
 26 27  1  0  0  0  0
 26 48  1  0  0  0  0
 27 28  2  0  0  0  0
 27 49  1  0  0  0  0
 28 29  1  0  0  0  0
 28 50  1  0  0  0  0
 29 51  1  0  0  0  0
 30 52  1  0  0  0  0
 30 53  1  0  0  0  0
 30 54  1  0  0  0  0
M  END
$$$$
