
 OpenBabel07202414143D

 63 68  0  0  1  0  0  0  0  0999 V2000
    7.8094    1.6367   -0.9185 C   0  0  0  0  0  0  0  0  0  0  0  0
    6.7528    1.5927    0.0522 N   0  0  0  0  0  0  0  0  0  0  0  0
    5.5408    1.0172   -0.2530 C   0  0  0  0  0  0  0  0  0  0  0  0
    5.2762    0.5718   -1.3726 O   0  0  0  0  0  0  0  0  0  0  0  0
    4.5280    0.9058    0.8847 C   0  0  0  0  0  0  0  0  0  0  0  0
    5.0657    1.0972    2.2394 N   0  0  0  0  0  0  0  0  0  0  0  0
    5.4938   -0.0960    2.9408 C   0  0  0  0  0  0  0  0  0  0  0  0
    6.5579    0.1054    4.0178 C   0  0  3  0  0  0  0  0  0  0  0  0
    6.5529   -1.1675    4.9032 C   0  0  0  0  0  0  0  0  0  0  0  0
    7.9670   -1.6934    4.8320 C   0  0  0  0  0  0  0  0  0  0  0  0
    8.7632   -0.5354    4.5246 N   0  0  0  0  0  0  0  0  0  0  0  0
   10.1610   -0.5002    4.8177 C   0  0  0  0  0  0  0  0  0  0  0  0
   11.0814   -0.0176    3.9009 C   0  0  0  0  0  0  0  0  0  0  0  0
   12.4068   -0.3072    3.9591 N   0  0  0  0  0  0  0  0  0  0  0  0
   12.8450   -0.9945    5.0253 C   0  0  0  0  0  0  0  0  0  0  0  0
   12.0781   -1.2612    6.1543 C   0  0  0  0  0  0  0  0  0  0  0  0
   12.6477   -1.7402    7.3550 C   0  0  0  0  0  0  0  0  0  0  0  0
   11.8359   -1.9964    8.4624 C   0  0  0  0  0  0  0  0  0  0  0  0
   12.5143   -2.5963    9.9919 S   0  0  0  0  0  0  0  0  0  0  0  0
   12.7305   -1.1247   10.9633 C   0  0  0  0  0  0  0  0  0  0  0  0
   11.4934   -3.4102   10.6241 O   0  0  0  0  0  0  0  0  0  0  0  0
   13.8264   -3.1420    9.6986 O   0  0  0  0  0  0  0  0  0  0  0  0
   10.4638   -1.7776    8.3886 C   0  0  0  0  0  0  0  0  0  0  0  0
    9.9255   -1.2242    7.2275 C   0  0  0  0  0  0  0  0  0  0  0  0
   10.6886   -1.0062    6.0509 C   0  0  0  0  0  0  0  0  0  0  0  0
    8.0406    0.2093    3.5579 C   0  0  0  0  0  0  0  0  0  0  0  0
    8.4583    0.9438    2.6825 O   0  0  0  0  0  0  0  0  0  0  0  0
    6.2671    1.3766    4.8110 C   0  0  0  0  0  0  0  0  0  0  0  0
    6.9556    1.6358    6.0192 C   0  0  0  0  0  0  0  0  0  0  0  0
    6.7865    2.8329    6.7084 C   0  0  0  0  0  0  0  0  0  0  0  0
    7.7236    3.1278    8.1148 Cl  0  0  0  0  0  0  0  0  0  0  0  0
    5.8988    3.7838    6.2316 C   0  0  0  0  0  0  0  0  0  0  0  0
    5.2231    3.5596    5.0328 C   0  0  0  0  0  0  0  0  0  0  0  0
    5.4277    2.3776    4.3001 C   0  0  0  0  0  0  0  0  0  0  0  0
    4.8400    2.2836    2.9325 C   0  0  0  0  0  0  0  0  0  0  0  0
    4.2364    3.2444    2.4715 O   0  0  0  0  0  0  0  0  0  0  0  0
    3.4287   -0.1555    0.7134 C   0  0  0  0  0  0  0  0  0  0  0  0
    3.0809    1.2859    0.5659 C   0  0  0  0  0  0  0  0  0  0  0  0
    8.6555    2.1977   -0.5103 H   0  0  0  0  0  0  0  0  0  0  0  0
    7.4494    2.1188   -1.8317 H   0  0  0  0  0  0  0  0  0  0  0  0
    8.1253    0.6147   -1.1558 H   0  0  0  0  0  0  0  0  0  0  0  0
    6.9441    1.8625    1.0083 H   0  0  0  0  0  0  0  0  0  0  0  0
    5.7930   -0.8668    2.2158 H   0  0  0  0  0  0  0  0  0  0  0  0
    4.5756   -0.4568    3.4330 H   0  0  0  0  0  0  0  0  0  0  0  0
    5.8621   -1.9437    4.5541 H   0  0  0  0  0  0  0  0  0  0  0  0
    6.2695   -0.9517    5.9395 H   0  0  0  0  0  0  0  0  0  0  0  0
    8.0635   -2.3822    3.9809 H   0  0  0  0  0  0  0  0  0  0  0  0
    8.2399   -2.2480    5.7275 H   0  0  0  0  0  0  0  0  0  0  0  0
   10.7938    0.5758    3.0392 H   0  0  0  0  0  0  0  0  0  0  0  0
   13.8827   -1.3353    4.9502 H   0  0  0  0  0  0  0  0  0  0  0  0
   13.7295   -1.8754    7.4354 H   0  0  0  0  0  0  0  0  0  0  0  0
   11.7614   -0.6426   11.1078 H   0  0  0  0  0  0  0  0  0  0  0  0
   13.4241   -0.4552   10.4512 H   0  0  0  0  0  0  0  0  0  0  0  0
   13.1432   -1.4142   11.9332 H   0  0  0  0  0  0  0  0  0  0  0  0
    9.8148   -2.0106    9.2275 H   0  0  0  0  0  0  0  0  0  0  0  0
    8.8798   -0.9275    7.2678 H   0  0  0  0  0  0  0  0  0  0  0  0
    7.6782    0.9247    6.4055 H   0  0  0  0  0  0  0  0  0  0  0  0
    5.7596    4.7205    6.7625 H   0  0  0  0  0  0  0  0  0  0  0  0
    4.5574    4.3309    4.6450 H   0  0  0  0  0  0  0  0  0  0  0  0
    3.0397   -0.6695    1.5832 H   0  0  0  0  0  0  0  0  0  0  0  0
    3.4337   -0.7650   -0.1849 H   0  0  0  0  0  0  0  0  0  0  0  0
    2.4742    1.7435    1.3387 H   0  0  0  0  0  0  0  0  0  0  0  0
    2.8451    1.6443   -0.4309 H   0  0  0  0  0  0  0  0  0  0  0  0
  1  2  1  0  0  0  0
  1 39  1  0  0  0  0
  1 40  1  0  0  0  0
  1 41  1  0  0  0  0
  2  3  1  0  0  0  0
  2 42  1  0  0  0  0
  3  4  2  0  0  0  0
  3  5  1  0  0  0  0
  5  6  1  0  0  0  0
  5 37  1  0  0  0  0
  5 38  1  0  0  0  0
  6  7  1  0  0  0  0
  6 35  1  0  0  0  0
  7  8  1  0  0  0  0
  7 43  1  0  0  0  0
  7 44  1  0  0  0  0
  8  9  1  0  0  0  0
  8 26  1  0  0  0  0
  8 28  1  0  0  0  0
  9 10  1  0  0  0  0
  9 45  1  0  0  0  0
  9 46  1  0  0  0  0
 10 11  1  0  0  0  0
 10 47  1  0  0  0  0
 10 48  1  0  0  0  0
 11 12  1  0  0  0  0
 11 26  1  0  0  0  0
 12 13  1  0  0  0  0
 12 25  2  0  0  0  0
 13 14  2  0  0  0  0
 13 49  1  0  0  0  0
 14 15  1  0  0  0  0
 15 16  2  0  0  0  0
 15 50  1  0  0  0  0
 16 17  1  0  0  0  0
 16 25  1  0  0  0  0
 17 18  2  0  0  0  0
 17 51  1  0  0  0  0
 18 19  1  0  0  0  0
 18 23  1  0  0  0  0
 19 20  1  0  0  0  0
 19 21  2  0  0  0  0
 19 22  2  0  0  0  0
 20 52  1  0  0  0  0
 20 53  1  0  0  0  0
 20 54  1  0  0  0  0
 23 24  2  0  0  0  0
 23 55  1  0  0  0  0
 24 25  1  0  0  0  0
 24 56  1  0  0  0  0
 26 27  2  0  0  0  0
 28 29  1  0  0  0  0
 28 34  2  0  0  0  0
 29 30  2  0  0  0  0
 29 57  1  0  0  0  0
 30 31  1  0  0  0  0
 30 32  1  0  0  0  0
 32 33  2  0  0  0  0
 32 58  1  0  0  0  0
 33 34  1  0  0  0  0
 33 59  1  0  0  0  0
 34 35  1  0  0  0  0
 35 36  2  0  0  0  0
 37 38  1  0  0  0  0
 37 60  1  0  0  0  0
 37 61  1  0  0  0  0
 38 62  1  0  0  0  0
 38 63  1  0  0  0  0
M  END
$$$$
