
 OpenBabel07202414193D

 43 47  0  0  1  0  0  0  0  0999 V2000
    1.0540    0.5002    0.4935 O   0  0  0  0  0  0  0  0  0  0  0  0
    2.2048    0.4163    0.1336 C   0  0  0  0  0  0  0  0  0  0  0  0
    2.5540   -0.6568   -0.6350 N   0  0  0  0  0  0  0  0  0  0  0  0
    3.9974   -0.8266   -0.7167 C   0  0  1  0  0  0  0  0  0  0  0  0
    4.1912   -2.3836   -0.7300 C   0  0  0  0  0  0  0  0  0  0  0  0
    5.3036   -2.2616   -1.7699 C   0  0  1  0  0  0  0  0  0  0  0  0
    5.4518   -3.2437   -3.0318 C   0  0  0  0  0  0  0  0  0  0  0  0
    6.2683   -2.8500   -4.1163 C   0  0  0  0  0  0  0  0  0  0  0  0
    6.4637   -3.6475   -5.2483 C   0  0  0  0  0  0  0  0  0  0  0  0
    5.8385   -4.8836   -5.3399 C   0  0  0  0  0  0  0  0  0  0  0  0
    5.0143   -5.3085   -4.3009 C   0  0  0  0  0  0  0  0  0  0  0  0
    4.8324   -4.5026   -3.1642 C   0  0  0  0  0  0  0  0  0  0  0  0
    4.6937   -0.8598   -2.1021 C   0  0  0  0  0  0  0  0  0  0  0  0
    4.4663    0.5204    0.0714 C   0  0  0  0  0  0  0  0  0  0  0  0
    5.6121    0.9742    0.0399 O   0  0  0  0  0  0  0  0  0  0  0  0
    3.2925    1.2071    0.4464 N   0  0  0  0  0  0  0  0  0  0  0  0
    3.0750    2.5191    1.0926 C   0  0  0  0  0  0  0  0  0  0  0  0
    1.7740    3.0480    1.0680 C   0  0  0  0  0  0  0  0  0  0  0  0
    1.2965    4.1415    1.7102 N   0  0  0  0  0  0  0  0  0  0  0  0
    2.1922    4.8517    2.3930 C   0  0  0  0  0  0  0  0  0  0  0  0
    3.5480    4.5774    2.3927 C   0  0  0  0  0  0  0  0  0  0  0  0
    4.3932    5.5138    3.0078 C   0  0  0  0  0  0  0  0  0  0  0  0
    5.7618    5.3196    3.0289 C   0  0  0  0  0  0  0  0  0  0  0  0
    6.2753    4.1541    2.4905 C   0  0  0  0  0  0  0  0  0  0  0  0
    5.4291    3.2001    1.9031 C   0  0  0  0  0  0  0  0  0  0  0  0
    4.0328    3.3780    1.7621 C   0  0  0  0  0  0  0  0  0  0  0  0
    1.9052   -1.4199   -0.4590 H   0  0  0  0  0  0  0  0  0  0  0  0
    3.3217   -2.8782   -1.2112 H   0  0  0  0  0  0  0  0  0  0  0  0
    4.3694   -2.9673    0.1749 H   0  0  0  0  0  0  0  0  0  0  0  0
    6.2652   -2.2208   -1.2349 H   0  0  0  0  0  0  0  0  0  0  0  0
    6.7748   -1.8870   -4.0680 H   0  0  0  0  0  0  0  0  0  0  0  0
    7.1145   -3.3030   -6.0476 H   0  0  0  0  0  0  0  0  0  0  0  0
    5.9925   -5.5098   -6.2142 H   0  0  0  0  0  0  0  0  0  0  0  0
    4.5221   -6.2755   -4.3721 H   0  0  0  0  0  0  0  0  0  0  0  0
    4.1910   -4.8813   -2.3709 H   0  0  0  0  0  0  0  0  0  0  0  0
    3.9941   -0.8025   -2.9370 H   0  0  0  0  0  0  0  0  0  0  0  0
    5.4918   -0.1242   -2.2566 H   0  0  0  0  0  0  0  0  0  0  0  0
    0.9828    2.6218    0.4576 H   0  0  0  0  0  0  0  0  0  0  0  0
    1.7738    5.6899    2.9451 H   0  0  0  0  0  0  0  0  0  0  0  0
    3.9912    6.4245    3.4526 H   0  0  0  0  0  0  0  0  0  0  0  0
    6.4192    6.0580    3.4786 H   0  0  0  0  0  0  0  0  0  0  0  0
    7.3436    3.9615    2.5299 H   0  0  0  0  0  0  0  0  0  0  0  0
    5.9276    2.3094    1.5620 H   0  0  0  0  0  0  0  0  0  0  0  0
  1  2  2  0  0  0  0
  2  3  1  0  0  0  0
  2 16  1  0  0  0  0
  3  4  1  0  0  0  0
  3 27  1  0  0  0  0
  4  5  1  0  0  0  0
  4 13  1  0  0  0  0
  4 14  1  1  0  0  0
  5  6  1  0  0  0  0
  5 28  1  0  0  0  0
  5 29  1  0  0  0  0
  6  7  1  0  0  0  0
  6 13  1  0  0  0  0
  6 30  1  1  0  0  0
  7  8  1  0  0  0  0
  7 12  2  0  0  0  0
  8  9  2  0  0  0  0
  8 31  1  0  0  0  0
  9 10  1  0  0  0  0
  9 32  1  0  0  0  0
 10 11  2  0  0  0  0
 10 33  1  0  0  0  0
 11 12  1  0  0  0  0
 11 34  1  0  0  0  0
 12 35  1  0  0  0  0
 13 36  1  0  0  0  0
 13 37  1  0  0  0  0
 14 15  2  0  0  0  0
 14 16  1  0  0  0  0
 16 17  1  0  0  0  0
 17 18  1  0  0  0  0
 17 26  2  0  0  0  0
 18 19  2  0  0  0  0
 18 38  1  0  0  0  0
 19 20  1  0  0  0  0
 20 21  2  0  0  0  0
 20 39  1  0  0  0  0
 21 22  1  0  0  0  0
 21 26  1  0  0  0  0
 22 23  2  0  0  0  0
 22 40  1  0  0  0  0
 23 24  1  0  0  0  0
 23 41  1  0  0  0  0
 24 25  2  0  0  0  0
 24 42  1  0  0  0  0
 25 26  1  0  0  0  0
 25 43  1  0  0  0  0
M  END
$$$$
