
 OpenBabel07202414183D

 63 67  0  0  1  0  0  0  0  0999 V2000
   -5.1071   -3.9698   -7.6688 Cl  0  0  0  0  0  0  0  0  0  0  0  0
   -3.6694   -3.1560   -7.1840 C   0  0  0  0  0  0  0  0  0  0  0  0
   -2.6849   -2.8803   -8.1286 C   0  0  0  0  0  0  0  0  0  0  0  0
   -1.5277   -2.2113   -7.7365 C   0  0  0  0  0  0  0  0  0  0  0  0
   -1.3456   -1.8483   -6.3984 C   0  0  0  0  0  0  0  0  0  0  0  0
   -2.3149   -2.1511   -5.4258 C   0  0  0  0  0  0  0  0  0  0  0  0
   -2.0997   -1.8359   -3.9477 C   0  0  3  0  0  0  0  0  0  0  0  0
   -0.9254   -2.5582   -3.4298 N   0  0  0  0  0  0  0  0  0  0  0  0
   -1.0053   -3.4170   -2.3600 C   0  0  0  0  0  0  0  0  0  0  0  0
   -2.0752   -3.6148   -1.7833 O   0  0  0  0  0  0  0  0  0  0  0  0
    0.3380   -4.0308   -1.8497 C   0  0  1  0  0  0  0  0  0  0  0  0
    0.1066   -5.4346   -1.2981 C   0  0  0  0  0  0  0  0  0  0  0  0
    0.5908   -6.2988   -2.4377 C   0  0  0  0  0  0  0  0  0  0  0  0
    1.8097   -5.5190   -2.9046 C   0  0  2  0  0  0  0  0  0  0  0  0
    3.0795   -5.9684   -2.1061 C   0  0  0  0  0  0  0  0  0  0  0  0
    3.0066   -6.7809   -1.1796 O   0  0  0  0  0  0  0  0  0  0  0  0
    4.3034   -5.4817   -2.5062 N   0  0  0  0  0  0  0  0  0  0  0  0
    4.5731   -4.4979   -3.5306 C   0  0  0  0  0  0  0  0  0  0  0  0
    5.9722   -4.8665   -3.9956 C   0  0  0  0  0  0  0  0  0  0  0  0
    6.6628   -5.3440   -2.7212 C   0  0  0  0  0  0  0  0  0  0  0  0
    5.5357   -5.9113   -1.8622 C   0  0  0  0  0  0  0  0  0  0  0  0
    1.4264   -4.1343   -2.7864 O   0  0  0  0  0  0  0  0  0  0  0  0
   -1.9365   -0.3109   -3.6804 C   0  0  0  0  0  0  0  0  0  0  0  0
   -1.1261    0.3764   -4.3091 O   0  0  0  0  0  0  0  0  0  0  0  0
   -2.6600    0.1783   -2.5966 N   0  0  0  0  0  0  0  0  0  0  0  0
   -2.5491    1.5368   -2.1779 C   0  0  0  0  0  0  0  0  0  0  0  0
   -2.6465    2.5824   -3.1010 C   0  0  0  0  0  0  0  0  0  0  0  0
   -2.5819    3.8978   -2.7852 N   0  0  0  0  0  0  0  0  0  0  0  0
   -2.3783    4.1917   -1.4854 C   0  0  0  0  0  0  0  0  0  0  0  0
   -2.2452    3.2461   -0.4692 C   0  0  0  0  0  0  0  0  0  0  0  0
   -1.9951    3.6313    0.8575 C   0  0  0  0  0  0  0  0  0  0  0  0
   -1.8145    2.6694    1.8517 C   0  0  0  0  0  0  0  0  0  0  0  0
   -1.8888    1.3209    1.5317 C   0  0  0  0  0  0  0  0  0  0  0  0
   -2.1534    0.9256    0.2156 C   0  0  0  0  0  0  0  0  0  0  0  0
   -2.3454    1.8722   -0.8190 C   0  0  0  0  0  0  0  0  0  0  0  0
   -3.4953   -2.7915   -5.8455 C   0  0  0  0  0  0  0  0  0  0  0  0
   -2.8123   -3.1802   -9.1654 H   0  0  0  0  0  0  0  0  0  0  0  0
   -0.7621   -1.9759   -8.4722 H   0  0  0  0  0  0  0  0  0  0  0  0
   -0.4342   -1.3186   -6.1235 H   0  0  0  0  0  0  0  0  0  0  0  0
   -2.9884   -2.1670   -3.3992 H   0  0  0  0  0  0  0  0  0  0  0  0
   -0.0193   -2.3876   -3.8509 H   0  0  0  0  0  0  0  0  0  0  0  0
    0.6650   -3.3636   -1.0429 H   0  0  0  0  0  0  0  0  0  0  0  0
   -0.9213   -5.6633   -1.0083 H   0  0  0  0  0  0  0  0  0  0  0  0
    0.7391   -5.5917   -0.4156 H   0  0  0  0  0  0  0  0  0  0  0  0
   -0.1645   -6.3165   -3.2327 H   0  0  0  0  0  0  0  0  0  0  0  0
    0.7937   -7.3315   -2.1416 H   0  0  0  0  0  0  0  0  0  0  0  0
    2.0003   -5.7368   -3.9612 H   0  0  0  0  0  0  0  0  0  0  0  0
    4.5625   -3.5151   -3.0468 H   0  0  0  0  0  0  0  0  0  0  0  0
    3.8389   -4.5132   -4.3367 H   0  0  0  0  0  0  0  0  0  0  0  0
    6.4933   -4.0324   -4.4736 H   0  0  0  0  0  0  0  0  0  0  0  0
    5.9197   -5.6942   -4.7135 H   0  0  0  0  0  0  0  0  0  0  0  0
    7.1430   -4.5029   -2.2089 H   0  0  0  0  0  0  0  0  0  0  0  0
    7.4370   -6.0905   -2.9283 H   0  0  0  0  0  0  0  0  0  0  0  0
    5.5676   -5.5013   -0.8467 H   0  0  0  0  0  0  0  0  0  0  0  0
    5.5685   -7.0041   -1.7977 H   0  0  0  0  0  0  0  0  0  0  0  0
   -2.9448   -0.5001   -1.8993 H   0  0  0  0  0  0  0  0  0  0  0  0
   -2.8242    2.3889   -4.1564 H   0  0  0  0  0  0  0  0  0  0  0  0
   -2.3053    5.2582   -1.2739 H   0  0  0  0  0  0  0  0  0  0  0  0
   -1.9129    4.6830    1.1242 H   0  0  0  0  0  0  0  0  0  0  0  0
   -1.5985    2.9743    2.8721 H   0  0  0  0  0  0  0  0  0  0  0  0
   -1.7262    0.5661    2.2966 H   0  0  0  0  0  0  0  0  0  0  0  0
   -2.1716   -0.1381    0.0066 H   0  0  0  0  0  0  0  0  0  0  0  0
   -4.2817   -3.0224   -5.1299 H   0  0  0  0  0  0  0  0  0  0  0  0
  1  2  1  0  0  0  0
  2  3  1  0  0  0  0
  2 36  2  0  0  0  0
  3  4  2  0  0  0  0
  3 37  1  0  0  0  0
  4  5  1  0  0  0  0
  4 38  1  0  0  0  0
  5  6  2  0  0  0  0
  5 39  1  0  0  0  0
  6  7  1  0  0  0  0
  6 36  1  0  0  0  0
  7  8  1  0  0  0  0
  7 23  1  0  0  0  0
  7 40  1  0  0  0  0
  8  9  1  0  0  0  0
  8 41  1  0  0  0  0
  9 10  2  0  0  0  0
 11 12  1  0  0  0  0
 11 22  1  0  0  0  0
 11  9  1  0  0  0  0
 11 42  1  1  0  0  0
 12 13  1  0  0  0  0
 12 43  1  0  0  0  0
 12 44  1  0  0  0  0
 13 14  1  0  0  0  0
 13 45  1  0  0  0  0
 13 46  1  0  0  0  0
 14 22  1  0  0  0  0
 14 15  1  0  0  0  0
 14 47  1  6  0  0  0
 15 16  2  0  0  0  0
 15 17  1  0  0  0  0
 17 18  1  0  0  0  0
 17 21  1  0  0  0  0
 18 19  1  0  0  0  0
 18 48  1  0  0  0  0
 18 49  1  0  0  0  0
 19 20  1  0  0  0  0
 19 50  1  0  0  0  0
 19 51  1  0  0  0  0
 20 21  1  0  0  0  0
 20 52  1  0  0  0  0
 20 53  1  0  0  0  0
 21 54  1  0  0  0  0
 21 55  1  0  0  0  0
 23 24  2  0  0  0  0
 23 25  1  0  0  0  0
 25 26  1  0  0  0  0
 25 56  1  0  0  0  0
 26 27  1  0  0  0  0
 26 35  2  0  0  0  0
 27 28  2  0  0  0  0
 27 57  1  0  0  0  0
 28 29  1  0  0  0  0
 29 30  2  0  0  0  0
 29 58  1  0  0  0  0
 30 31  1  0  0  0  0
 30 35  1  0  0  0  0
 31 32  2  0  0  0  0
 31 59  1  0  0  0  0
 32 33  1  0  0  0  0
 32 60  1  0  0  0  0
 33 34  2  0  0  0  0
 33 61  1  0  0  0  0
 34 35  1  0  0  0  0
 34 62  1  0  0  0  0
 36 63  1  0  0  0  0
M  END
$$$$
