
 OpenBabel07202414193D

 44 47  0  0  1  0  0  0  0  0999 V2000
    1.2362   -0.5223   -0.4079 O   0  0  0  0  0  0  0  0  0  0  0  0
    2.2361   -0.0795    0.1633 C   0  0  0  0  0  0  0  0  0  0  0  0
    2.6738    1.3550   -0.1055 C   0  0  0  0  0  0  0  0  0  0  0  0
    3.7665    1.4712   -1.1481 C   0  0  0  0  0  0  0  0  0  0  0  0
    3.7250    0.6365   -2.2698 C   0  0  0  0  0  0  0  0  0  0  0  0
    4.6201    0.6550   -3.2780 N   0  0  0  0  0  0  0  0  0  0  0  0
    5.5984    1.5781   -3.1931 C   0  0  0  0  0  0  0  0  0  0  0  0
    5.7404    2.4891   -2.1480 C   0  0  0  0  0  0  0  0  0  0  0  0
    6.7837    3.4325   -2.1464 C   0  0  0  0  0  0  0  0  0  0  0  0
    6.9171    4.3422   -1.1015 C   0  0  0  0  0  0  0  0  0  0  0  0
    6.0069    4.3203   -0.0533 C   0  0  0  0  0  0  0  0  0  0  0  0
    4.9623    3.3900   -0.0493 C   0  0  0  0  0  0  0  0  0  0  0  0
    4.8007    2.4453   -1.0911 C   0  0  0  0  0  0  0  0  0  0  0  0
    3.0071   -0.8639    1.0067 N   0  0  0  0  0  0  0  0  0  0  0  0
    4.2074   -0.4373    1.7240 C   0  0  0  0  0  0  0  0  0  0  0  0
    5.4014   -1.2918    1.3127 C   0  0  0  0  0  0  0  0  0  0  0  0
    5.1142   -2.7790    1.5187 C   0  0  0  0  0  0  0  0  0  0  0  0
    3.8000   -3.2072    0.8384 C   0  0  1  0  0  0  0  0  0  0  0  0
    3.4698   -4.5926    1.1414 N   0  0  0  0  0  0  0  0  0  0  0  0
    3.3226   -5.6169    0.2499 C   0  0  0  0  0  0  0  0  0  0  0  0
    3.0350   -6.7347    0.9962 C   0  0  0  0  0  0  0  0  0  0  0  0
    3.0269   -6.2831    2.3281 C   0  0  0  0  0  0  0  0  0  0  0  0
    3.2856   -4.9768    2.4227 N   0  0  0  0  0  0  0  0  0  0  0  0
    2.6413   -2.2718    1.2163 C   0  0  0  0  0  0  0  0  0  0  0  0
    2.9331    1.8140    0.8508 H   0  0  0  0  0  0  0  0  0  0  0  0
    1.7992    1.9129   -0.4641 H   0  0  0  0  0  0  0  0  0  0  0  0
    2.9361   -0.1021   -2.4033 H   0  0  0  0  0  0  0  0  0  0  0  0
    6.2912    1.5692   -4.0310 H   0  0  0  0  0  0  0  0  0  0  0  0
    7.4975    3.4663   -2.9673 H   0  0  0  0  0  0  0  0  0  0  0  0
    7.7253    5.0690   -1.1098 H   0  0  0  0  0  0  0  0  0  0  0  0
    6.1022    5.0316    0.7636 H   0  0  0  0  0  0  0  0  0  0  0  0
    4.2718    3.4272    0.7882 H   0  0  0  0  0  0  0  0  0  0  0  0
    4.0032   -0.5549    2.7957 H   0  0  0  0  0  0  0  0  0  0  0  0
    4.4416    0.6125    1.5569 H   0  0  0  0  0  0  0  0  0  0  0  0
    6.2817   -1.0023    1.8973 H   0  0  0  0  0  0  0  0  0  0  0  0
    5.6366   -1.1106    0.2573 H   0  0  0  0  0  0  0  0  0  0  0  0
    5.0692   -2.9800    2.5967 H   0  0  0  0  0  0  0  0  0  0  0  0
    5.9495   -3.3727    1.1273 H   0  0  0  0  0  0  0  0  0  0  0  0
    3.9501   -3.1493   -0.2490 H   0  0  0  0  0  0  0  0  0  0  0  0
    3.4338   -5.4706   -0.8155 H   0  0  0  0  0  0  0  0  0  0  0  0
    2.8552   -7.7361    0.6328 H   0  0  0  0  0  0  0  0  0  0  0  0
    2.8436   -6.8488    3.2326 H   0  0  0  0  0  0  0  0  0  0  0  0
    2.3722   -2.3758    2.2739 H   0  0  0  0  0  0  0  0  0  0  0  0
    1.7488   -2.5387    0.6370 H   0  0  0  0  0  0  0  0  0  0  0  0
  1  2  2  0  0  0  0
  2  3  1  0  0  0  0
  2 14  1  0  0  0  0
  3  4  1  0  0  0  0
  3 25  1  0  0  0  0
  3 26  1  0  0  0  0
  4  5  1  0  0  0  0
  4 13  2  0  0  0  0
  5  6  2  0  0  0  0
  5 27  1  0  0  0  0
  6  7  1  0  0  0  0
  7  8  2  0  0  0  0
  7 28  1  0  0  0  0
  8  9  1  0  0  0  0
  8 13  1  0  0  0  0
  9 10  2  0  0  0  0
  9 29  1  0  0  0  0
 10 11  1  0  0  0  0
 10 30  1  0  0  0  0
 11 12  2  0  0  0  0
 11 31  1  0  0  0  0
 12 13  1  0  0  0  0
 12 32  1  0  0  0  0
 14 15  1  0  0  0  0
 14 24  1  0  0  0  0
 15 16  1  0  0  0  0
 15 33  1  0  0  0  0
 15 34  1  0  0  0  0
 16 17  1  0  0  0  0
 16 35  1  0  0  0  0
 16 36  1  0  0  0  0
 17 18  1  0  0  0  0
 17 37  1  0  0  0  0
 17 38  1  0  0  0  0
 18 19  1  0  0  0  0
 18 24  1  0  0  0  0
 18 39  1  6  0  0  0
 19 20  1  0  0  0  0
 19 23  1  0  0  0  0
 20 21  2  0  0  0  0
 20 40  1  0  0  0  0
 21 22  1  0  0  0  0
 21 41  1  0  0  0  0
 22 23  2  0  0  0  0
 22 42  1  0  0  0  0
 24 43  1  0  0  0  0
 24 44  1  0  0  0  0
M  END
$$$$
