
 OpenBabel07202414143D

 43 46  0  0  1  0  0  0  0  0999 V2000
    1.0751    0.5739   -0.0985 C   0  0  0  0  0  0  0  0  0  0  0  0
    2.4573    0.2522   -0.2363 O   0  0  0  0  0  0  0  0  0  0  0  0
    2.8733   -0.2502   -1.5294 C   0  0  3  0  0  0  0  0  0  0  0  0
    2.8051    0.9011   -2.5925 C   0  0  0  0  0  0  0  0  0  0  0  0
    2.5810    0.7086   -3.7848 O   0  0  0  0  0  0  0  0  0  0  0  0
    3.0195    2.1456   -2.0061 N   0  0  0  0  0  0  0  0  0  0  0  0
    2.8311    3.4367   -2.5551 C   0  0  0  0  0  0  0  0  0  0  0  0
    2.3302    3.6455   -3.8384 C   0  0  0  0  0  0  0  0  0  0  0  0
    1.9693    4.8537   -4.3308 N   0  0  0  0  0  0  0  0  0  0  0  0
    2.1733    5.9190   -3.5296 C   0  0  0  0  0  0  0  0  0  0  0  0
    2.7749    5.8601   -2.2739 C   0  0  0  0  0  0  0  0  0  0  0  0
    3.0686    7.0339   -1.5546 C   0  0  0  0  0  0  0  0  0  0  0  0
    3.7049    6.9698   -0.3180 C   0  0  0  0  0  0  0  0  0  0  0  0
    4.0116    5.7331    0.2318 C   0  0  0  0  0  0  0  0  0  0  0  0
    3.7065    4.5601   -0.4666 C   0  0  0  0  0  0  0  0  0  0  0  0
    3.1028    4.5856   -1.7518 C   0  0  0  0  0  0  0  0  0  0  0  0
    2.0284   -1.4435   -2.0058 C   0  0  0  0  0  0  0  0  0  0  0  0
    2.2439   -2.6051   -1.0541 C   0  0  0  0  0  0  0  0  0  0  0  0
    3.5822   -3.0886   -1.1348 O   0  0  0  0  0  0  0  0  0  0  0  0
    4.5473   -2.1188   -1.0821 C   0  0  0  0  0  0  0  0  0  0  0  0
    5.8353   -2.5979   -0.8182 C   0  0  0  0  0  0  0  0  0  0  0  0
    6.8944   -1.7064   -0.7215 C   0  0  0  0  0  0  0  0  0  0  0  0
    8.1165   -2.1810   -0.4398 F   0  0  0  0  0  0  0  0  0  0  0  0
    6.6845   -0.3449   -0.9030 C   0  0  0  0  0  0  0  0  0  0  0  0
    7.9855    0.7734   -0.7643 Cl  0  0  0  0  0  0  0  0  0  0  0  0
    5.4003    0.1319   -1.1873 C   0  0  0  0  0  0  0  0  0  0  0  0
    4.3042   -0.7480   -1.2898 C   0  0  0  0  0  0  0  0  0  0  0  0
    0.9458    1.0809    0.8618 H   0  0  0  0  0  0  0  0  0  0  0  0
    0.4611   -0.3295   -0.0818 H   0  0  0  0  0  0  0  0  0  0  0  0
    0.7330    1.2481   -0.8883 H   0  0  0  0  0  0  0  0  0  0  0  0
    3.1942    2.0975   -1.0105 H   0  0  0  0  0  0  0  0  0  0  0  0
    2.1728    2.8334   -4.5397 H   0  0  0  0  0  0  0  0  0  0  0  0
    1.8363    6.8641   -3.9491 H   0  0  0  0  0  0  0  0  0  0  0  0
    2.8332    8.0110   -1.9728 H   0  0  0  0  0  0  0  0  0  0  0  0
    3.9704    7.8831    0.2087 H   0  0  0  0  0  0  0  0  0  0  0  0
    4.5073    5.6762    1.1982 H   0  0  0  0  0  0  0  0  0  0  0  0
    3.9925    3.6252    0.0060 H   0  0  0  0  0  0  0  0  0  0  0  0
    2.3361   -1.7494   -3.0150 H   0  0  0  0  0  0  0  0  0  0  0  0
    0.9643   -1.1935   -2.0598 H   0  0  0  0  0  0  0  0  0  0  0  0
    1.5834   -3.4366   -1.3281 H   0  0  0  0  0  0  0  0  0  0  0  0
    2.0159   -2.3481   -0.0134 H   0  0  0  0  0  0  0  0  0  0  0  0
    6.0113   -3.6570   -0.6681 H   0  0  0  0  0  0  0  0  0  0  0  0
    5.2790    1.2026   -1.3171 H   0  0  0  0  0  0  0  0  0  0  0  0
  1  2  1  0  0  0  0
  1 28  1  0  0  0  0
  1 29  1  0  0  0  0
  1 30  1  0  0  0  0
  2  3  1  0  0  0  0
  3  4  1  0  0  0  0
  3 17  1  0  0  0  0
  3 27  1  0  0  0  0
  4  5  2  0  0  0  0
  4  6  1  0  0  0  0
  6  7  1  0  0  0  0
  6 31  1  0  0  0  0
  7  8  1  0  0  0  0
  7 16  2  0  0  0  0
  8  9  2  0  0  0  0
  8 32  1  0  0  0  0
  9 10  1  0  0  0  0
 10 11  2  0  0  0  0
 10 33  1  0  0  0  0
 11 12  1  0  0  0  0
 11 16  1  0  0  0  0
 12 13  2  0  0  0  0
 12 34  1  0  0  0  0
 13 14  1  0  0  0  0
 13 35  1  0  0  0  0
 14 15  2  0  0  0  0
 14 36  1  0  0  0  0
 15 16  1  0  0  0  0
 15 37  1  0  0  0  0
 17 18  1  0  0  0  0
 17 38  1  0  0  0  0
 17 39  1  0  0  0  0
 18 19  1  0  0  0  0
 18 40  1  0  0  0  0
 18 41  1  0  0  0  0
 19 20  1  0  0  0  0
 20 21  1  0  0  0  0
 20 27  2  0  0  0  0
 21 22  2  0  0  0  0
 21 42  1  0  0  0  0
 22 23  1  0  0  0  0
 22 24  1  0  0  0  0
 24 25  1  0  0  0  0
 24 26  2  0  0  0  0
 26 27  1  0  0  0  0
 26 43  1  0  0  0  0
M  END
$$$$
