
 OpenBabel07202414203D

 29 31  0  0  0  0  0  0  0  0999 V2000
   -2.7787    0.7888    0.0713 C   0  0  0  0  0  0  0  0  0  0  0  0
   -2.8889   -0.6149    0.0119 C   0  0  0  0  0  0  0  0  0  0  0  0
   -1.7523   -1.4313   -0.0515 C   0  0  0  0  0  0  0  0  0  0  0  0
   -0.5131   -0.8172   -0.0587 C   0  0  0  0  0  0  0  0  0  0  0  0
   -0.4218    0.5731   -0.0095 C   0  0  0  0  0  0  0  0  0  0  0  0
   -1.5246    1.4019    0.0615 C   0  0  0  0  0  0  0  0  0  0  0  0
    0.9980    0.9203   -0.0397 C   0  0  0  0  0  0  0  0  0  0  0  0
    1.4787    2.0281   -0.0046 O   0  0  0  0  0  0  0  0  0  0  0  0
    1.7513   -0.4323   -0.1128 C   0  0  0  0  0  0  0  0  0  0  0  0
    2.9557   -0.5584   -0.1718 O   0  0  0  0  0  0  0  0  0  0  0  0
    0.7624   -1.4062   -0.0984 N   0  0  0  0  0  0  0  0  0  0  0  0
    1.0259   -2.8287   -0.1251 C   0  0  0  0  0  0  0  0  0  0  0  0
    0.9891   -3.4092   -1.5208 C   0  0  0  0  0  0  0  0  0  0  0  0
    1.9254   -3.0026   -2.4846 C   0  0  0  0  0  0  0  0  0  0  0  0
    1.8620   -3.4914   -3.7911 C   0  0  0  0  0  0  0  0  0  0  0  0
    0.8727   -4.4070   -4.1383 C   0  0  0  0  0  0  0  0  0  0  0  0
   -0.0373   -4.8574   -3.1845 C   0  0  0  0  0  0  0  0  0  0  0  0
    0.0221   -4.3613   -1.8790 C   0  0  0  0  0  0  0  0  0  0  0  0
    0.7538   -5.0301   -5.9188 Br  0  0  0  0  0  0  0  0  0  0  0  0
   -3.6789    1.3973    0.1235 H   0  0  0  0  0  0  0  0  0  0  0  0
   -3.8770   -1.0713    0.0148 H   0  0  0  0  0  0  0  0  0  0  0  0
   -1.8635   -2.5079   -0.0973 H   0  0  0  0  0  0  0  0  0  0  0  0
   -1.4184    2.4813    0.1093 H   0  0  0  0  0  0  0  0  0  0  0  0
    0.3020   -3.3315    0.5271 H   0  0  0  0  0  0  0  0  0  0  0  0
    2.0151   -3.0178    0.3089 H   0  0  0  0  0  0  0  0  0  0  0  0
    2.7098   -2.2924   -2.2260 H   0  0  0  0  0  0  0  0  0  0  0  0
    2.5824   -3.1438   -4.5270 H   0  0  0  0  0  0  0  0  0  0  0  0
   -0.8001   -5.5851   -3.4497 H   0  0  0  0  0  0  0  0  0  0  0  0
   -0.6987   -4.7224   -1.1488 H   0  0  0  0  0  0  0  0  0  0  0  0
  1  2  1  0  0  0  0
  1  6  2  0  0  0  0
  1 20  1  0  0  0  0
  2  3  2  0  0  0  0
  2 21  1  0  0  0  0
  3  4  1  0  0  0  0
  3 22  1  0  0  0  0
  4  5  2  0  0  0  0
  4 11  1  0  0  0  0
  5  6  1  0  0  0  0
  5  7  1  0  0  0  0
  6 23  1  0  0  0  0
  7  8  2  0  0  0  0
  7  9  1  0  0  0  0
  9 10  2  0  0  0  0
  9 11  1  0  0  0  0
 11 12  1  0  0  0  0
 12 13  1  0  0  0  0
 12 24  1  0  0  0  0
 12 25  1  0  0  0  0
 13 14  1  0  0  0  0
 13 18  2  0  0  0  0
 14 15  2  0  0  0  0
 14 26  1  0  0  0  0
 15 16  1  0  0  0  0
 15 27  1  0  0  0  0
 16 17  2  0  0  0  0
 16 19  1  0  0  0  0
 17 18  1  0  0  0  0
 17 28  1  0  0  0  0
 18 29  1  0  0  0  0
M  END
$$$$
