
 OpenBabel07202414153D

 48 50  0  0  0  0  0  0  0  0999 V2000
    4.1545   -1.4618    0.5024 C   0  0  0  0  0  0  0  0  0  0  0  0
    5.0295   -0.3361    0.4953 O   0  0  0  0  0  0  0  0  0  0  0  0
    4.9649    0.4828   -0.5973 C   0  0  0  0  0  0  0  0  0  0  0  0
    3.8864    0.6052   -1.4620 C   0  0  0  0  0  0  0  0  0  0  0  0
    3.9623    1.4589   -2.5778 C   0  0  0  0  0  0  0  0  0  0  0  0
    5.1457    2.0953   -2.9539 C   0  0  0  0  0  0  0  0  0  0  0  0
    5.3452    2.7658   -4.2761 C   0  0  0  0  0  0  0  0  0  0  0  0
    5.9678    4.0447   -4.2569 C   0  0  0  0  0  0  0  0  0  0  0  0
    6.4144    4.6950   -5.4128 C   0  0  0  0  0  0  0  0  0  0  0  0
    6.2447    4.1002   -6.6511 C   0  0  0  0  0  0  0  0  0  0  0  0
    5.5816    2.8804   -6.7297 C   0  0  0  0  0  0  0  0  0  0  0  0
    5.1090    2.2111   -5.5717 C   0  0  0  0  0  0  0  0  0  0  0  0
    4.4159    0.5958   -5.9397 S   0  0  0  0  0  0  0  0  0  0  0  0
    5.4404   -0.1413   -6.6578 O   0  0  0  0  0  0  0  0  0  0  0  0
    3.7953    0.0033   -4.7926 O   0  0  0  0  0  0  0  0  0  0  0  0
    3.1459    0.8776   -7.0839 N   0  0  0  0  0  0  0  0  0  0  0  0
    2.0520    1.8356   -6.7600 C   0  0  0  0  0  0  0  0  0  0  0  0
    1.0995    1.3031   -5.6872 C   0  0  0  0  0  0  0  0  0  0  0  0
    0.6033   -0.0748   -5.8901 N   0  0  0  0  0  0  0  0  0  0  0  0
   -0.4367   -0.4269   -5.0310 C   0  0  0  0  0  0  0  0  0  0  0  0
   -0.9331    0.4594   -4.3087 O   0  0  0  0  0  0  0  0  0  0  0  0
   -1.0617   -1.8042   -4.8547 C   0  0  0  0  0  0  0  0  0  0  0  0
   -0.6692   -3.1286   -5.9305 Cl  0  0  0  0  0  0  0  0  0  0  0  0
    1.5788   -1.0158   -6.4771 C   0  0  0  0  0  0  0  0  0  0  0  0
    2.5000   -0.3957   -7.5512 C   0  0  0  0  0  0  0  0  0  0  0  0
    6.1755    2.0647   -1.9874 C   0  0  0  0  0  0  0  0  0  0  0  0
    6.0782    1.2853   -0.8208 C   0  0  0  0  0  0  0  0  0  0  0  0
    4.3486   -2.0303    1.4184 H   0  0  0  0  0  0  0  0  0  0  0  0
    4.3499   -2.1261   -0.3472 H   0  0  0  0  0  0  0  0  0  0  0  0
    3.1043   -1.1567    0.5297 H   0  0  0  0  0  0  0  0  0  0  0  0
    2.9702    0.0434   -1.3170 H   0  0  0  0  0  0  0  0  0  0  0  0
    3.0747    1.5501   -3.1940 H   0  0  0  0  0  0  0  0  0  0  0  0
    6.1552    4.5426   -3.3044 H   0  0  0  0  0  0  0  0  0  0  0  0
    6.9318    5.6503   -5.3367 H   0  0  0  0  0  0  0  0  0  0  0  0
    6.6410    4.5675   -7.5490 H   0  0  0  0  0  0  0  0  0  0  0  0
    5.4749    2.4113   -7.7093 H   0  0  0  0  0  0  0  0  0  0  0  0
    1.4681    1.9898   -7.6844 H   0  0  0  0  0  0  0  0  0  0  0  0
    2.4472    2.8185   -6.5004 H   0  0  0  0  0  0  0  0  0  0  0  0
    0.2418    1.9850   -5.6267 H   0  0  0  0  0  0  0  0  0  0  0  0
    1.5876    1.3308   -4.7112 H   0  0  0  0  0  0  0  0  0  0  0  0
   -2.1441   -1.6617   -4.9520 H   0  0  0  0  0  0  0  0  0  0  0  0
   -0.8632   -2.1351   -3.8302 H   0  0  0  0  0  0  0  0  0  0  0  0
    1.0573   -1.8213   -6.9814 H   0  0  0  0  0  0  0  0  0  0  0  0
    2.1475   -1.4611   -5.6567 H   0  0  0  0  0  0  0  0  0  0  0  0
    1.8947   -0.1615   -8.4380 H   0  0  0  0  0  0  0  0  0  0  0  0
    3.2569   -1.1124   -7.8867 H   0  0  0  0  0  0  0  0  0  0  0  0
    7.0938    2.6303   -2.1356 H   0  0  0  0  0  0  0  0  0  0  0  0
    6.8998    1.2742   -0.1089 H   0  0  0  0  0  0  0  0  0  0  0  0
  1  2  1  0  0  0  0
  1 28  1  0  0  0  0
  1 29  1  0  0  0  0
  1 30  1  0  0  0  0
  2  3  1  0  0  0  0
  3  4  1  0  0  0  0
  3 27  2  0  0  0  0
  4  5  2  0  0  0  0
  4 31  1  0  0  0  0
  5  6  1  0  0  0  0
  5 32  1  0  0  0  0
  6  7  1  0  0  0  0
  6 26  2  0  0  0  0
  7  8  1  0  0  0  0
  7 12  2  0  0  0  0
  8  9  2  0  0  0  0
  8 33  1  0  0  0  0
  9 10  1  0  0  0  0
  9 34  1  0  0  0  0
 10 11  2  0  0  0  0
 10 35  1  0  0  0  0
 11 12  1  0  0  0  0
 11 36  1  0  0  0  0
 12 13  1  0  0  0  0
 13 14  2  0  0  0  0
 13 15  2  0  0  0  0
 13 16  1  0  0  0  0
 16 17  1  0  0  0  0
 16 25  1  0  0  0  0
 17 18  1  0  0  0  0
 17 37  1  0  0  0  0
 17 38  1  0  0  0  0
 18 19  1  0  0  0  0
 18 39  1  0  0  0  0
 18 40  1  0  0  0  0
 19 20  1  0  0  0  0
 19 24  1  0  0  0  0
 20 21  2  0  0  0  0
 20 22  1  0  0  0  0
 22 23  1  0  0  0  0
 22 41  1  0  0  0  0
 22 42  1  0  0  0  0
 24 25  1  0  0  0  0
 24 43  1  0  0  0  0
 24 44  1  0  0  0  0
 25 45  1  0  0  0  0
 25 46  1  0  0  0  0
 26 27  1  0  0  0  0
 26 47  1  0  0  0  0
 27 48  1  0  0  0  0
M  END
$$$$
