
 OpenBabel07202414193D

 58 62  0  0  1  0  0  0  0  0999 V2000
    7.0228   -1.0110   -3.1256 N   0  0  0  0  0  0  0  0  0  0  0  0
    6.3259    0.1290   -2.1271 S   0  0  0  0  0  0  0  0  0  0  0  0
    6.7374   -0.1563   -0.7806 O   0  0  0  0  0  0  0  0  0  0  0  0
    6.5041    1.4083   -2.7724 O   0  0  0  0  0  0  0  0  0  0  0  0
    4.6015   -0.1375   -2.1418 C   0  0  0  0  0  0  0  0  0  0  0  0
    3.7980    0.8300   -2.6804 N   0  0  0  0  0  0  0  0  0  0  0  0
    2.4974    0.5065   -2.7138 N   0  0  0  0  0  0  0  0  0  0  0  0
    2.4674   -0.6993   -2.1476 C   0  0  0  0  0  0  0  0  0  0  0  0
    3.7443   -1.1470   -1.7353 C   0  0  0  0  0  0  0  0  0  0  0  0
    4.0231   -2.4134   -1.0902 C   0  0  0  0  0  0  0  0  0  0  0  0
    3.3221   -3.3938   -1.3107 O   0  0  0  0  0  0  0  0  0  0  0  0
    5.0467   -2.4239   -0.1732 N   0  0  0  0  0  0  0  0  0  0  0  0
    5.3943   -3.6073    0.6080 C   0  0  0  0  0  0  0  0  0  0  0  0
    4.7169   -3.7464    2.0265 C   0  0  1  0  0  0  0  0  0  0  0  0
    5.2187   -2.5762    2.9341 C   0  0  0  0  0  0  0  0  0  0  0  0
    5.9558   -1.6967    2.4960 O   0  0  0  0  0  0  0  0  0  0  0  0
    4.7514   -2.6100    4.2387 N   0  0  0  0  0  0  0  0  0  0  0  0
    4.8112   -1.5823    5.2241 C   0  0  0  0  0  0  0  0  0  0  0  0
    5.3926   -0.3351    4.9958 C   0  0  0  0  0  0  0  0  0  0  0  0
    5.3158    0.7168    5.8481 N   0  0  0  0  0  0  0  0  0  0  0  0
    4.6886    0.5005    7.0207 C   0  0  0  0  0  0  0  0  0  0  0  0
    4.1921   -0.7336    7.4303 C   0  0  0  0  0  0  0  0  0  0  0  0
    3.6969   -0.9174    8.7349 C   0  0  0  0  0  0  0  0  0  0  0  0
    3.2369   -2.1627    9.1518 C   0  0  0  0  0  0  0  0  0  0  0  0
    3.2027   -3.2175    8.2508 C   0  0  0  0  0  0  0  0  0  0  0  0
    3.6718   -3.0387    6.9461 C   0  0  0  0  0  0  0  0  0  0  0  0
    4.2220   -1.8068    6.5053 C   0  0  0  0  0  0  0  0  0  0  0  0
    3.1821   -3.7004    1.8387 C   0  0  0  0  0  0  0  0  0  0  0  0
    2.3940   -4.3459    2.9625 C   0  0  0  0  0  0  0  0  0  0  0  0
    2.7957   -5.6826    3.2407 O   0  0  0  0  0  0  0  0  0  0  0  0
    4.1249   -5.9695    3.1458 C   0  0  0  0  0  0  0  0  0  0  0  0
    4.4699   -7.2543    3.5838 C   0  0  0  0  0  0  0  0  0  0  0  0
    5.7901   -7.6952    3.5228 C   0  0  0  0  0  0  0  0  0  0  0  0
    6.7722   -6.8352    3.0499 C   0  0  0  0  0  0  0  0  0  0  0  0
    8.4028   -7.3720    2.9464 Cl  0  0  0  0  0  0  0  0  0  0  0  0
    6.4388   -5.5456    2.6284 C   0  0  0  0  0  0  0  0  0  0  0  0
    5.0992   -5.1055    2.6285 C   0  0  0  0  0  0  0  0  0  0  0  0
    7.9427   -1.2640   -2.7562 H   0  0  0  0  0  0  0  0  0  0  0  0
    7.0991   -0.6617   -4.0835 H   0  0  0  0  0  0  0  0  0  0  0  0
    4.0957    1.7243   -3.0621 H   0  0  0  0  0  0  0  0  0  0  0  0
    1.5193   -1.2122   -2.0386 H   0  0  0  0  0  0  0  0  0  0  0  0
    5.5880   -1.5789    0.0149 H   0  0  0  0  0  0  0  0  0  0  0  0
    6.4859   -3.5705    0.6985 H   0  0  0  0  0  0  0  0  0  0  0  0
    5.1598   -4.4937    0.0041 H   0  0  0  0  0  0  0  0  0  0  0  0
    4.2938   -3.4602    4.5206 H   0  0  0  0  0  0  0  0  0  0  0  0
    5.9669   -0.1125    4.1027 H   0  0  0  0  0  0  0  0  0  0  0  0
    4.6054    1.3817    7.6536 H   0  0  0  0  0  0  0  0  0  0  0  0
    3.7085   -0.0975    9.4511 H   0  0  0  0  0  0  0  0  0  0  0  0
    2.9140   -2.3131   10.1792 H   0  0  0  0  0  0  0  0  0  0  0  0
    2.8316   -4.1900    8.5634 H   0  0  0  0  0  0  0  0  0  0  0  0
    3.6265   -3.9078    6.2966 H   0  0  0  0  0  0  0  0  0  0  0  0
    2.9229   -4.2745    0.9406 H   0  0  0  0  0  0  0  0  0  0  0  0
    2.8297   -2.6737    1.6884 H   0  0  0  0  0  0  0  0  0  0  0  0
    1.3383   -4.3953    2.6696 H   0  0  0  0  0  0  0  0  0  0  0  0
    2.4101   -3.7663    3.8886 H   0  0  0  0  0  0  0  0  0  0  0  0
    3.6971   -7.9238    3.9556 H   0  0  0  0  0  0  0  0  0  0  0  0
    6.0401   -8.7050    3.8366 H   0  0  0  0  0  0  0  0  0  0  0  0
    7.2376   -4.9004    2.2674 H   0  0  0  0  0  0  0  0  0  0  0  0
  1  2  1  0  0  0  0
  1 38  1  0  0  0  0
  1 39  1  0  0  0  0
  2  3  2  0  0  0  0
  2  4  2  0  0  0  0
  2  5  1  0  0  0  0
  5  6  1  0  0  0  0
  5  9  2  0  0  0  0
  6  7  1  0  0  0  0
  6 40  1  0  0  0  0
  7  8  2  0  0  0  0
  8  9  1  0  0  0  0
  8 41  1  0  0  0  0
  9 10  1  0  0  0  0
 10 11  2  0  0  0  0
 10 12  1  0  0  0  0
 12 13  1  0  0  0  0
 12 42  1  0  0  0  0
 13 43  1  0  0  0  0
 13 44  1  0  0  0  0
 14 28  1  0  0  0  0
 14 37  1  0  0  0  0
 14 15  1  1  0  0  0
 14 13  1  0  0  0  0
 15 16  2  0  0  0  0
 15 17  1  0  0  0  0
 17 18  1  0  0  0  0
 17 45  1  0  0  0  0
 18 19  1  0  0  0  0
 18 27  2  0  0  0  0
 19 20  2  0  0  0  0
 19 46  1  0  0  0  0
 20 21  1  0  0  0  0
 21 22  2  0  0  0  0
 21 47  1  0  0  0  0
 22 23  1  0  0  0  0
 22 27  1  0  0  0  0
 23 24  2  0  0  0  0
 23 48  1  0  0  0  0
 24 25  1  0  0  0  0
 24 49  1  0  0  0  0
 25 26  2  0  0  0  0
 25 50  1  0  0  0  0
 26 27  1  0  0  0  0
 26 51  1  0  0  0  0
 28 29  1  0  0  0  0
 28 52  1  0  0  0  0
 28 53  1  0  0  0  0
 29 30  1  0  0  0  0
 29 54  1  0  0  0  0
 29 55  1  0  0  0  0
 30 31  1  0  0  0  0
 31 32  1  0  0  0  0
 31 37  2  0  0  0  0
 32 33  2  0  0  0  0
 32 56  1  0  0  0  0
 33 34  1  0  0  0  0
 33 57  1  0  0  0  0
 34 35  1  0  0  0  0
 34 36  2  0  0  0  0
 36 37  1  0  0  0  0
 36 58  1  0  0  0  0
M  END
$$$$
