
 OpenBabel07202414133D

 49 52  0  0  1  0  0  0  0  0999 V2000
    1.4046    1.4107    0.0903 C   0  0  0  0  0  0  0  0  0  0  0  0
    2.3992    0.2958    0.3593 C   0  0  0  0  0  0  0  0  0  0  0  0
    3.3115    0.7536    1.3625 O   0  0  0  0  0  0  0  0  0  0  0  0
    4.3534    1.5043    0.9263 C   0  0  0  0  0  0  0  0  0  0  0  0
    4.6974    1.5937   -0.2452 O   0  0  0  0  0  0  0  0  0  0  0  0
    4.9589    2.1924    1.9573 N   0  0  0  0  0  0  0  0  0  0  0  0
    4.4035    2.2564    3.3088 C   0  0  0  0  0  0  0  0  0  0  0  0
    5.4847    1.9559    4.3429 C   0  0  3  0  0  0  0  0  0  0  0  0
    5.7340    0.4391    4.3714 C   0  0  0  0  0  0  0  0  0  0  0  0
    5.1022   -0.2677    5.1505 O   0  0  0  0  0  0  0  0  0  0  0  0
    6.6516   -0.0096    3.4372 N   0  0  0  0  0  0  0  0  0  0  0  0
    7.2228   -1.3017    3.3248 C   0  0  0  0  0  0  0  0  0  0  0  0
    6.8592   -2.3605    4.1554 C   0  0  0  0  0  0  0  0  0  0  0  0
    7.4947   -3.5537    4.1965 N   0  0  0  0  0  0  0  0  0  0  0  0
    8.5233   -3.7165    3.3407 C   0  0  0  0  0  0  0  0  0  0  0  0
    8.9198   -2.7779    2.3928 C   0  0  0  0  0  0  0  0  0  0  0  0
    9.9434   -3.0699    1.4696 C   0  0  0  0  0  0  0  0  0  0  0  0
   10.3161   -2.1442    0.4997 C   0  0  0  0  0  0  0  0  0  0  0  0
    9.6883   -0.9074    0.4566 C   0  0  0  0  0  0  0  0  0  0  0  0
    8.6816   -0.6003    1.3780 C   0  0  0  0  0  0  0  0  0  0  0  0
    8.2579   -1.5279    2.3681 C   0  0  0  0  0  0  0  0  0  0  0  0
    6.7425    2.7754    4.0762 C   0  0  0  0  0  0  0  0  0  0  0  0
    7.6844    2.9481    5.1017 C   0  0  0  0  0  0  0  0  0  0  0  0
    8.8726    3.6335    4.8406 C   0  0  0  0  0  0  0  0  0  0  0  0
   10.0258    3.8345    6.1034 Cl  0  0  0  0  0  0  0  0  0  0  0  0
    9.1363    4.1369    3.5751 C   0  0  0  0  0  0  0  0  0  0  0  0
    8.2044    3.9763    2.5509 C   0  0  0  0  0  0  0  0  0  0  0  0
    7.0027    3.2939    2.7860 C   0  0  0  0  0  0  0  0  0  0  0  0
    6.0128    3.1408    1.6492 C   0  0  0  0  0  0  0  0  0  0  0  0
    0.6214    1.0865   -0.5991 H   0  0  0  0  0  0  0  0  0  0  0  0
    1.9090    2.2847   -0.3354 H   0  0  0  0  0  0  0  0  0  0  0  0
    0.9434    1.7430    1.0270 H   0  0  0  0  0  0  0  0  0  0  0  0
    2.9175   -0.0209   -0.5522 H   0  0  0  0  0  0  0  0  0  0  0  0
    1.8792   -0.5789    0.7634 H   0  0  0  0  0  0  0  0  0  0  0  0
    3.5505    1.5828    3.4385 H   0  0  0  0  0  0  0  0  0  0  0  0
    4.0190    3.2765    3.4423 H   0  0  0  0  0  0  0  0  0  0  0  0
    5.1000    2.2364    5.3330 H   0  0  0  0  0  0  0  0  0  0  0  0
    7.0537    0.6970    2.8407 H   0  0  0  0  0  0  0  0  0  0  0  0
    6.0269   -2.2982    4.8483 H   0  0  0  0  0  0  0  0  0  0  0  0
    9.0362   -4.6698    3.4384 H   0  0  0  0  0  0  0  0  0  0  0  0
   10.4405   -4.0377    1.4890 H   0  0  0  0  0  0  0  0  0  0  0  0
   11.0849   -2.3933   -0.2268 H   0  0  0  0  0  0  0  0  0  0  0  0
    9.9689   -0.1817   -0.3031 H   0  0  0  0  0  0  0  0  0  0  0  0
    8.2126    0.3739    1.2768 H   0  0  0  0  0  0  0  0  0  0  0  0
    7.4981    2.5451    6.0945 H   0  0  0  0  0  0  0  0  0  0  0  0
   10.0701    4.6588    3.3762 H   0  0  0  0  0  0  0  0  0  0  0  0
    8.4261    4.3779    1.5623 H   0  0  0  0  0  0  0  0  0  0  0  0
    6.5431    2.8217    0.7450 H   0  0  0  0  0  0  0  0  0  0  0  0
    5.5375    4.1088    1.4478 H   0  0  0  0  0  0  0  0  0  0  0  0
  1  2  1  0  0  0  0
  1 30  1  0  0  0  0
  1 31  1  0  0  0  0
  1 32  1  0  0  0  0
  2  3  1  0  0  0  0
  2 33  1  0  0  0  0
  2 34  1  0  0  0  0
  3  4  1  0  0  0  0
  4  5  2  0  0  0  0
  4  6  1  0  0  0  0
  6  7  1  0  0  0  0
  6 29  1  0  0  0  0
  7  8  1  0  0  0  0
  7 35  1  0  0  0  0
  7 36  1  0  0  0  0
  8  9  1  0  0  0  0
  8 22  1  0  0  0  0
  8 37  1  0  0  0  0
  9 10  2  0  0  0  0
  9 11  1  0  0  0  0
 11 12  1  0  0  0  0
 11 38  1  0  0  0  0
 12 13  1  0  0  0  0
 12 21  2  0  0  0  0
 13 14  2  0  0  0  0
 13 39  1  0  0  0  0
 14 15  1  0  0  0  0
 15 16  2  0  0  0  0
 15 40  1  0  0  0  0
 16 17  1  0  0  0  0
 16 21  1  0  0  0  0
 17 18  2  0  0  0  0
 17 41  1  0  0  0  0
 18 19  1  0  0  0  0
 18 42  1  0  0  0  0
 19 20  2  0  0  0  0
 19 43  1  0  0  0  0
 20 21  1  0  0  0  0
 20 44  1  0  0  0  0
 22 23  1  0  0  0  0
 22 28  2  0  0  0  0
 23 24  2  0  0  0  0
 23 45  1  0  0  0  0
 24 25  1  0  0  0  0
 24 26  1  0  0  0  0
 26 27  2  0  0  0  0
 26 46  1  0  0  0  0
 27 28  1  0  0  0  0
 27 47  1  0  0  0  0
 28 29  1  0  0  0  0
 29 48  1  0  0  0  0
 29 49  1  0  0  0  0
M  END
$$$$
