
 OpenBabel07202414183D

 45 47  0  0  0  0  0  0  0  0999 V2000
   -3.2471    0.2007    0.8286 C   0  0  0  0  0  0  0  0  0  0  0  0
   -1.8735   -0.1960    0.5660 N   0  0  0  0  0  0  0  0  0  0  0  0
   -1.5713   -1.5321    0.4465 C   0  0  0  0  0  0  0  0  0  0  0  0
   -0.3531   -2.0269    0.1505 C   0  0  0  0  0  0  0  0  0  0  0  0
    0.7325   -1.0271   -0.0830 C   0  0  0  0  0  0  0  0  0  0  0  0
    2.0394   -1.3649   -0.4798 C   0  0  0  0  0  0  0  0  0  0  0  0
    3.0183   -0.3784   -0.6794 C   0  0  0  0  0  0  0  0  0  0  0  0
    2.7208    0.9662   -0.4821 C   0  0  0  0  0  0  0  0  0  0  0  0
    1.4356    1.3299   -0.1016 C   0  0  0  0  0  0  0  0  0  0  0  0
    0.4507    0.3469    0.0834 C   0  0  0  0  0  0  0  0  0  0  0  0
   -0.9207    0.7993    0.4236 C   0  0  0  0  0  0  0  0  0  0  0  0
   -1.1684    1.9993    0.5494 O   0  0  0  0  0  0  0  0  0  0  0  0
   -0.0999   -3.3956    0.0733 N   0  0  0  0  0  0  0  0  0  0  0  0
   -1.0347   -4.4107    0.2228 C   0  0  0  0  0  0  0  0  0  0  0  0
   -2.2345   -4.2324    0.4097 O   0  0  0  0  0  0  0  0  0  0  0  0
   -0.4820   -5.6851    0.1713 N   0  0  0  0  0  0  0  0  0  0  0  0
   -1.3503   -6.8016    0.3355 C   0  0  0  0  0  0  0  0  0  0  0  0
   -2.4835   -6.8819   -0.4945 C   0  0  0  0  0  0  0  0  0  0  0  0
   -3.3976   -7.9312   -0.3874 C   0  0  0  0  0  0  0  0  0  0  0  0
   -3.1941   -8.9298    0.5568 C   0  0  0  0  0  0  0  0  0  0  0  0
   -2.0558   -8.8702    1.3726 C   0  0  0  0  0  0  0  0  0  0  0  0
   -1.1291   -7.8161    1.2746 C   0  0  0  0  0  0  0  0  0  0  0  0
   -0.0650   -7.9176    2.1324 O   0  0  0  0  0  0  0  0  0  0  0  0
    0.3221   -6.7355    2.8253 C   0  0  0  0  0  0  0  0  0  0  0  0
   -4.0246   -9.9957    0.7748 O   0  0  0  0  0  0  0  0  0  0  0  0
   -5.1842  -10.0841   -0.0493 C   0  0  0  0  0  0  0  0  0  0  0  0
   -3.8950   -0.6652    1.0134 H   0  0  0  0  0  0  0  0  0  0  0  0
   -3.6239    0.7484   -0.0387 H   0  0  0  0  0  0  0  0  0  0  0  0
   -3.2747    0.8557    1.7030 H   0  0  0  0  0  0  0  0  0  0  0  0
   -2.4259   -2.1683    0.6243 H   0  0  0  0  0  0  0  0  0  0  0  0
    2.3343   -2.3930   -0.6608 H   0  0  0  0  0  0  0  0  0  0  0  0
    4.0203   -0.6611   -0.9980 H   0  0  0  0  0  0  0  0  0  0  0  0
    3.4779    1.7315   -0.6353 H   0  0  0  0  0  0  0  0  0  0  0  0
    1.1923    2.3819    0.0406 H   0  0  0  0  0  0  0  0  0  0  0  0
    0.8292   -3.6925   -0.1802 H   0  0  0  0  0  0  0  0  0  0  0  0
    0.4445   -5.7784    0.5504 H   0  0  0  0  0  0  0  0  0  0  0  0
   -2.6693   -6.1130   -1.2422 H   0  0  0  0  0  0  0  0  0  0  0  0
   -4.2544   -7.9255   -1.0523 H   0  0  0  0  0  0  0  0  0  0  0  0
   -1.9027   -9.6501    2.1162 H   0  0  0  0  0  0  0  0  0  0  0  0
    0.6440   -7.0175    3.8324 H   0  0  0  0  0  0  0  0  0  0  0  0
   -0.4818   -5.9984    2.9226 H   0  0  0  0  0  0  0  0  0  0  0  0
    1.1939   -6.2990    2.3282 H   0  0  0  0  0  0  0  0  0  0  0  0
   -5.7590  -10.9597    0.2684 H   0  0  0  0  0  0  0  0  0  0  0  0
   -4.9076  -10.2303   -1.0989 H   0  0  0  0  0  0  0  0  0  0  0  0
   -5.8294   -9.2066    0.0690 H   0  0  0  0  0  0  0  0  0  0  0  0
  1  2  1  0  0  0  0
  1 27  1  0  0  0  0
  1 28  1  0  0  0  0
  1 29  1  0  0  0  0
  2  3  1  0  0  0  0
  2 11  1  0  0  0  0
  3  4  2  0  0  0  0
  3 30  1  0  0  0  0
  4  5  1  0  0  0  0
  4 13  1  0  0  0  0
  5  6  1  0  0  0  0
  5 10  2  0  0  0  0
  6  7  2  0  0  0  0
  6 31  1  0  0  0  0
  7  8  1  0  0  0  0
  7 32  1  0  0  0  0
  8  9  2  0  0  0  0
  8 33  1  0  0  0  0
  9 10  1  0  0  0  0
  9 34  1  0  0  0  0
 10 11  1  0  0  0  0
 11 12  2  0  0  0  0
 13 14  1  0  0  0  0
 13 35  1  0  0  0  0
 14 15  2  0  0  0  0
 14 16  1  0  0  0  0
 16 17  1  0  0  0  0
 16 36  1  0  0  0  0
 17 18  1  0  0  0  0
 17 22  2  0  0  0  0
 18 19  2  0  0  0  0
 18 37  1  0  0  0  0
 19 20  1  0  0  0  0
 19 38  1  0  0  0  0
 20 21  2  0  0  0  0
 20 25  1  0  0  0  0
 21 22  1  0  0  0  0
 21 39  1  0  0  0  0
 22 23  1  0  0  0  0
 23 24  1  0  0  0  0
 24 40  1  0  0  0  0
 24 41  1  0  0  0  0
 24 42  1  0  0  0  0
 25 26  1  0  0  0  0
 26 43  1  0  0  0  0
 26 44  1  0  0  0  0
 26 45  1  0  0  0  0
M  END
$$$$
