
 OpenBabel07202414163D

 59 63  0  0  0  0  0  0  0  0999 V2000
   -2.1306   -0.3510   -0.6796 Cl  0  0  0  0  0  0  0  0  0  0  0  0
   -0.4185   -0.2001   -0.7633 C   0  0  0  0  0  0  0  0  0  0  0  0
    0.1643    1.0556   -0.8664 C   0  0  0  0  0  0  0  0  0  0  0  0
    1.5611    1.2061   -0.8239 C   0  0  0  0  0  0  0  0  0  0  0  0
    2.1351    2.5065   -0.7927 N   0  0  0  0  0  0  0  0  0  0  0  0
    1.6522    3.6299   -0.0589 C   0  0  0  0  0  0  0  0  0  0  0  0
    1.9748    4.9503   -0.4320 C   0  0  0  0  0  0  0  0  0  0  0  0
    2.8004    5.2967   -1.6572 C   0  0  0  0  0  0  0  0  0  0  0  0
    4.2554    5.6822   -1.4487 C   0  0  0  0  0  0  0  0  0  0  0  0
    4.9327    5.5264   -0.2320 C   0  0  0  0  0  0  0  0  0  0  0  0
    6.2692    5.9193   -0.0987 C   0  0  0  0  0  0  0  0  0  0  0  0
    6.9491    6.4643   -1.1865 C   0  0  0  0  0  0  0  0  0  0  0  0
    6.2984    6.6129   -2.4071 C   0  0  0  0  0  0  0  0  0  0  0  0
    4.9630    6.2264   -2.5357 C   0  0  0  0  0  0  0  0  0  0  0  0
    1.4850    6.0256    0.3438 C   0  0  0  0  0  0  0  0  0  0  0  0
    0.6693    5.8074    1.4543 C   0  0  0  0  0  0  0  0  0  0  0  0
    0.3437    4.5104    1.8196 C   0  0  0  0  0  0  0  0  0  0  0  0
    0.8452    3.4398    1.0811 C   0  0  0  0  0  0  0  0  0  0  0  0
    2.3635    0.0446   -0.7751 C   0  0  0  0  0  0  0  0  0  0  0  0
    1.7800   -1.2379   -0.7052 C   0  0  0  0  0  0  0  0  0  0  0  0
    2.5456   -2.5257   -0.4897 C   0  0  0  0  0  0  0  0  0  0  0  0
    3.9689   -2.6154   -0.9905 C   0  0  0  0  0  0  0  0  0  0  0  0
    4.9171   -2.4983   -0.2204 O   0  0  0  0  0  0  0  0  0  0  0  0
    4.0803   -2.8610   -2.3534 N   0  0  0  0  0  0  0  0  0  0  0  0
    5.3735   -3.0328   -2.9141 C   0  0  0  0  0  0  0  0  0  0  0  0
    6.2415   -3.9972   -2.3910 C   0  0  0  0  0  0  0  0  0  0  0  0
    7.5212   -4.1683   -2.7848 N   0  0  0  0  0  0  0  0  0  0  0  0
    7.9966   -3.2447   -3.6454 C   0  0  0  0  0  0  0  0  0  0  0  0
    7.2461   -2.1930   -4.1769 C   0  0  0  0  0  0  0  0  0  0  0  0
    7.8431   -1.1681   -4.9279 C   0  0  0  0  0  0  0  0  0  0  0  0
    7.0719   -0.1421   -5.4667 C   0  0  0  0  0  0  0  0  0  0  0  0
    5.6889   -0.1742   -5.3338 C   0  0  0  0  0  0  0  0  0  0  0  0
    5.0864   -1.1695   -4.5624 C   0  0  0  0  0  0  0  0  0  0  0  0
    5.8599   -2.1531   -3.9048 C   0  0  0  0  0  0  0  0  0  0  0  0
    0.3768   -1.3365   -0.6769 C   0  0  0  0  0  0  0  0  0  0  0  0
   -0.4730    1.9341   -0.9331 H   0  0  0  0  0  0  0  0  0  0  0  0
    3.1524    2.4983   -0.7942 H   0  0  0  0  0  0  0  0  0  0  0  0
    2.3016    6.1505   -2.1420 H   0  0  0  0  0  0  0  0  0  0  0  0
    2.7555    4.4793   -2.3858 H   0  0  0  0  0  0  0  0  0  0  0  0
    4.4274    5.1161    0.6386 H   0  0  0  0  0  0  0  0  0  0  0  0
    6.7726    5.8115    0.8583 H   0  0  0  0  0  0  0  0  0  0  0  0
    7.9880    6.7701   -1.0788 H   0  0  0  0  0  0  0  0  0  0  0  0
    6.8311    7.0299   -3.2588 H   0  0  0  0  0  0  0  0  0  0  0  0
    4.4712    6.3576   -3.4971 H   0  0  0  0  0  0  0  0  0  0  0  0
    1.7362    7.0513    0.0774 H   0  0  0  0  0  0  0  0  0  0  0  0
    0.2884    6.6487    2.0285 H   0  0  0  0  0  0  0  0  0  0  0  0
   -0.2992    4.3249    2.6761 H   0  0  0  0  0  0  0  0  0  0  0  0
    0.5966    2.4363    1.4189 H   0  0  0  0  0  0  0  0  0  0  0  0
    3.4468    0.1493   -0.7364 H   0  0  0  0  0  0  0  0  0  0  0  0
    1.9984   -3.3599   -0.9481 H   0  0  0  0  0  0  0  0  0  0  0  0
    2.5702   -2.7270    0.5890 H   0  0  0  0  0  0  0  0  0  0  0  0
    3.3838   -2.3918   -2.9180 H   0  0  0  0  0  0  0  0  0  0  0  0
    5.9152   -4.6833   -1.6138 H   0  0  0  0  0  0  0  0  0  0  0  0
    9.0491   -3.3686   -3.8942 H   0  0  0  0  0  0  0  0  0  0  0  0
    8.9250   -1.1352   -5.0464 H   0  0  0  0  0  0  0  0  0  0  0  0
    7.5498    0.6811   -5.9913 H   0  0  0  0  0  0  0  0  0  0  0  0
    5.0781    0.5940   -5.8000 H   0  0  0  0  0  0  0  0  0  0  0  0
    4.0052   -1.1493   -4.4686 H   0  0  0  0  0  0  0  0  0  0  0  0
   -0.0995   -2.3079   -0.5557 H   0  0  0  0  0  0  0  0  0  0  0  0
  1  2  1  0  0  0  0
  2  3  2  0  0  0  0
  2 35  1  0  0  0  0
  3  4  1  0  0  0  0
  3 36  1  0  0  0  0
  4  5  1  0  0  0  0
  4 19  2  0  0  0  0
  5  6  1  0  0  0  0
  5 37  1  0  0  0  0
  6  7  2  0  0  0  0
  6 18  1  0  0  0  0
  7  8  1  0  0  0  0
  7 15  1  0  0  0  0
  8  9  1  0  0  0  0
  8 38  1  0  0  0  0
  8 39  1  0  0  0  0
  9 10  2  0  0  0  0
  9 14  1  0  0  0  0
 10 11  1  0  0  0  0
 10 40  1  0  0  0  0
 11 12  2  0  0  0  0
 11 41  1  0  0  0  0
 12 13  1  0  0  0  0
 12 42  1  0  0  0  0
 13 14  2  0  0  0  0
 13 43  1  0  0  0  0
 14 44  1  0  0  0  0
 15 16  2  0  0  0  0
 15 45  1  0  0  0  0
 16 17  1  0  0  0  0
 16 46  1  0  0  0  0
 17 18  2  0  0  0  0
 17 47  1  0  0  0  0
 18 48  1  0  0  0  0
 19 20  1  0  0  0  0
 19 49  1  0  0  0  0
 20 21  1  0  0  0  0
 20 35  2  0  0  0  0
 21 22  1  0  0  0  0
 21 50  1  0  0  0  0
 21 51  1  0  0  0  0
 22 23  2  0  0  0  0
 22 24  1  0  0  0  0
 24 25  1  0  0  0  0
 24 52  1  0  0  0  0
 25 26  2  0  0  0  0
 25 34  1  0  0  0  0
 26 27  1  0  0  0  0
 26 53  1  0  0  0  0
 27 28  2  0  0  0  0
 28 29  1  0  0  0  0
 28 54  1  0  0  0  0
 29 30  2  0  0  0  0
 29 34  1  0  0  0  0
 30 31  1  0  0  0  0
 30 55  1  0  0  0  0
 31 32  2  0  0  0  0
 31 56  1  0  0  0  0
 32 33  1  0  0  0  0
 32 57  1  0  0  0  0
 33 34  2  0  0  0  0
 33 58  1  0  0  0  0
 35 59  1  0  0  0  0
M  END
$$$$
