
 OpenBabel07202414183D

 33 34  0  0  0  0  0  0  0  0999 V2000
    2.3585   -6.6024    2.9319 Cl  0  0  0  0  0  0  0  0  0  0  0  0
    1.6034   -5.1882    2.3128 C   0  0  0  0  0  0  0  0  0  0  0  0
    0.2901   -4.8928    2.6751 C   0  0  0  0  0  0  0  0  0  0  0  0
   -0.3264   -3.7467    2.1611 C   0  0  0  0  0  0  0  0  0  0  0  0
    0.3819   -2.8974    1.3083 C   0  0  0  0  0  0  0  0  0  0  0  0
    1.7162   -3.1672    0.9515 C   0  0  0  0  0  0  0  0  0  0  0  0
    2.4356   -2.2484   -0.0271 C   0  0  0  0  0  0  0  0  0  0  0  0
    3.9013   -2.2779    0.0833 N   0  0  0  0  0  0  0  0  0  0  0  0
    4.4266   -1.6070    1.2842 C   0  0  0  0  0  0  0  0  0  0  0  0
    4.4791   -0.0678    1.2332 C   0  0  0  0  0  0  0  0  0  0  0  0
    5.0439    0.4644   -0.0102 N   0  0  0  0  0  0  0  0  0  0  0  0
    5.3767    1.8221   -0.1521 C   0  0  0  0  0  0  0  0  0  0  0  0
    5.7232    2.3506   -1.2021 O   0  0  0  0  0  0  0  0  0  0  0  0
    5.2620    2.6924    1.0933 C   0  0  0  0  0  0  0  0  0  0  0  0
    4.3279    3.4573    1.2445 O   0  0  0  0  0  0  0  0  0  0  0  0
    4.6836   -0.2267   -1.2433 C   0  0  0  0  0  0  0  0  0  0  0  0
    4.5835   -1.7588   -1.1162 C   0  0  0  0  0  0  0  0  0  0  0  0
    2.3058   -4.3427    1.4508 C   0  0  0  0  0  0  0  0  0  0  0  0
   -0.2656   -5.5549    3.3402 H   0  0  0  0  0  0  0  0  0  0  0  0
   -1.3536   -3.5266    2.4293 H   0  0  0  0  0  0  0  0  0  0  0  0
   -0.1250   -2.0196    0.9096 H   0  0  0  0  0  0  0  0  0  0  0  0
    2.0574   -1.2233    0.0718 H   0  0  0  0  0  0  0  0  0  0  0  0
    2.1389   -2.6058   -1.0226 H   0  0  0  0  0  0  0  0  0  0  0  0
    5.4511   -1.9754    1.4289 H   0  0  0  0  0  0  0  0  0  0  0  0
    3.8824   -1.9164    2.1837 H   0  0  0  0  0  0  0  0  0  0  0  0
    5.0960    0.2853    2.0668 H   0  0  0  0  0  0  0  0  0  0  0  0
    3.4779    0.3616    1.3562 H   0  0  0  0  0  0  0  0  0  0  0  0
    6.0666    2.5276    1.8240 H   0  0  0  0  0  0  0  0  0  0  0  0
    5.4255    0.0176   -2.0132 H   0  0  0  0  0  0  0  0  0  0  0  0
    3.7233    0.1871   -1.5776 H   0  0  0  0  0  0  0  0  0  0  0  0
    5.6047   -2.1609   -1.1006 H   0  0  0  0  0  0  0  0  0  0  0  0
    4.1296   -2.1663   -2.0277 H   0  0  0  0  0  0  0  0  0  0  0  0
    3.3231   -4.6007    1.1650 H   0  0  0  0  0  0  0  0  0  0  0  0
  1  2  1  0  0  0  0
  2  3  1  0  0  0  0
  2 18  2  0  0  0  0
  3  4  2  0  0  0  0
  3 19  1  0  0  0  0
  4  5  1  0  0  0  0
  4 20  1  0  0  0  0
  5  6  2  0  0  0  0
  5 21  1  0  0  0  0
  6  7  1  0  0  0  0
  6 18  1  0  0  0  0
  7  8  1  0  0  0  0
  7 22  1  0  0  0  0
  7 23  1  0  0  0  0
  8  9  1  0  0  0  0
  8 17  1  0  0  0  0
  9 10  1  0  0  0  0
  9 24  1  0  0  0  0
  9 25  1  0  0  0  0
 10 11  1  0  0  0  0
 10 26  1  0  0  0  0
 10 27  1  0  0  0  0
 11 12  1  0  0  0  0
 11 16  1  0  0  0  0
 12 13  2  0  0  0  0
 12 14  1  0  0  0  0
 14 15  2  0  0  0  0
 14 28  1  0  0  0  0
 16 17  1  0  0  0  0
 16 29  1  0  0  0  0
 16 30  1  0  0  0  0
 17 31  1  0  0  0  0
 17 32  1  0  0  0  0
 18 33  1  0  0  0  0
M  END
$$$$
