
 OpenBabel07202414173D

 39 42  0  0  1  0  0  0  0  0999 V2000
   10.4044   -1.0844    0.3674 Cl  0  0  0  0  0  0  0  0  0  0  0  0
    9.1223   -2.1498   -0.0540 C   0  0  0  0  0  0  0  0  0  0  0  0
    9.3848   -3.2635   -0.8556 C   0  0  0  0  0  0  0  0  0  0  0  0
    8.3485   -4.1326   -1.1931 C   0  0  0  0  0  0  0  0  0  0  0  0
    7.0576   -3.8827   -0.7344 C   0  0  0  0  0  0  0  0  0  0  0  0
    6.7867   -2.7734    0.0765 C   0  0  0  0  0  0  0  0  0  0  0  0
    7.8321   -1.9055    0.4165 C   0  0  0  0  0  0  0  0  0  0  0  0
    5.3875   -2.5517    0.6085 C   0  0  3  0  0  0  0  0  0  0  0  0
    5.2093   -2.9998    2.0670 C   0  0  0  0  0  0  0  0  0  0  0  0
    4.8300   -2.2006    2.9124 O   0  0  0  0  0  0  0  0  0  0  0  0
    5.4887   -4.3361    2.2898 N   0  0  0  0  0  0  0  0  0  0  0  0
    5.5161   -5.0220    3.5318 C   0  0  0  0  0  0  0  0  0  0  0  0
    5.2825   -4.3963    4.7551 C   0  0  0  0  0  0  0  0  0  0  0  0
    5.5750   -4.9477    5.9557 N   0  0  0  0  0  0  0  0  0  0  0  0
    6.0078   -6.2240    5.9434 C   0  0  0  0  0  0  0  0  0  0  0  0
    6.0492   -7.0268    4.8064 C   0  0  0  0  0  0  0  0  0  0  0  0
    6.2619   -8.4146    4.8994 C   0  0  0  0  0  0  0  0  0  0  0  0
    6.2960   -9.2064    3.7547 C   0  0  0  0  0  0  0  0  0  0  0  0
    6.1765   -8.6123    2.5063 C   0  0  0  0  0  0  0  0  0  0  0  0
    5.9567   -7.2352    2.4051 C   0  0  0  0  0  0  0  0  0  0  0  0
    5.8465   -6.4084    3.5530 C   0  0  0  0  0  0  0  0  0  0  0  0
    4.3300   -3.1704   -0.2974 C   0  0  0  0  0  0  0  0  0  0  0  0
    4.7031   -4.5470   -0.7971 C   0  0  0  0  0  0  0  0  0  0  0  0
    3.8686   -5.4056   -1.0371 O   0  0  0  0  0  0  0  0  0  0  0  0
    6.0311   -4.7681   -1.0555 N   0  0  0  0  0  0  0  0  0  0  0  0
   10.3925   -3.4522   -1.2146 H   0  0  0  0  0  0  0  0  0  0  0  0
    8.5654   -4.9948   -1.8234 H   0  0  0  0  0  0  0  0  0  0  0  0
    7.6448   -1.0375    1.0526 H   0  0  0  0  0  0  0  0  0  0  0  0
    5.2056   -1.4669    0.6084 H   0  0  0  0  0  0  0  0  0  0  0  0
    5.8910   -4.8455    1.5170 H   0  0  0  0  0  0  0  0  0  0  0  0
    4.8666   -3.3974    4.8332 H   0  0  0  0  0  0  0  0  0  0  0  0
    6.3303   -6.5995    6.9115 H   0  0  0  0  0  0  0  0  0  0  0  0
    6.3482   -8.8938    5.8729 H   0  0  0  0  0  0  0  0  0  0  0  0
    6.4047  -10.2848    3.8381 H   0  0  0  0  0  0  0  0  0  0  0  0
    6.2237   -9.2208    1.6066 H   0  0  0  0  0  0  0  0  0  0  0  0
    5.8201   -6.8362    1.4046 H   0  0  0  0  0  0  0  0  0  0  0  0
    4.2050   -2.5472   -1.1915 H   0  0  0  0  0  0  0  0  0  0  0  0
    3.3609   -3.2254    0.2103 H   0  0  0  0  0  0  0  0  0  0  0  0
    6.2367   -5.6327   -1.5435 H   0  0  0  0  0  0  0  0  0  0  0  0
  1  2  1  0  0  0  0
  2  3  1  0  0  0  0
  2  7  2  0  0  0  0
  3  4  2  0  0  0  0
  3 26  1  0  0  0  0
  4  5  1  0  0  0  0
  4 27  1  0  0  0  0
  5  6  2  0  0  0  0
  5 25  1  0  0  0  0
  6  7  1  0  0  0  0
  6  8  1  0  0  0  0
  7 28  1  0  0  0  0
  8  9  1  0  0  0  0
  8 22  1  0  0  0  0
  8 29  1  0  0  0  0
  9 10  2  0  0  0  0
  9 11  1  0  0  0  0
 11 12  1  0  0  0  0
 11 30  1  0  0  0  0
 12 13  1  0  0  0  0
 12 21  2  0  0  0  0
 13 14  2  0  0  0  0
 13 31  1  0  0  0  0
 14 15  1  0  0  0  0
 15 16  2  0  0  0  0
 15 32  1  0  0  0  0
 16 17  1  0  0  0  0
 16 21  1  0  0  0  0
 17 18  2  0  0  0  0
 17 33  1  0  0  0  0
 18 19  1  0  0  0  0
 18 34  1  0  0  0  0
 19 20  2  0  0  0  0
 19 35  1  0  0  0  0
 20 21  1  0  0  0  0
 20 36  1  0  0  0  0
 22 23  1  0  0  0  0
 22 37  1  0  0  0  0
 22 38  1  0  0  0  0
 23 24  2  0  0  0  0
 23 25  1  0  0  0  0
 25 39  1  0  0  0  0
M  END
$$$$
