
 OpenBabel07202414193D

 47 50  0  0  1  0  0  0  0  0999 V2000
    1.1489   -0.3622   -0.3033 O   0  0  0  0  0  0  0  0  0  0  0  0
    2.3085   -0.0426   -0.0375 C   0  0  0  0  0  0  0  0  0  0  0  0
    3.0157    1.0383   -0.8495 C   0  0  0  0  0  0  0  0  0  0  0  0
    3.6681    0.4991   -2.1066 C   0  0  0  0  0  0  0  0  0  0  0  0
    3.0796   -0.5659   -2.7951 C   0  0  0  0  0  0  0  0  0  0  0  0
    3.5717   -1.1292   -3.9162 N   0  0  0  0  0  0  0  0  0  0  0  0
    4.7084   -0.5922   -4.4040 C   0  0  0  0  0  0  0  0  0  0  0  0
    5.3788    0.4914   -3.8380 C   0  0  0  0  0  0  0  0  0  0  0  0
    6.5461    1.0059   -4.4281 C   0  0  0  0  0  0  0  0  0  0  0  0
    7.2018    2.0965   -3.8702 C   0  0  0  0  0  0  0  0  0  0  0  0
    6.6927    2.6911   -2.7214 C   0  0  0  0  0  0  0  0  0  0  0  0
    5.5298    2.1849   -2.1285 C   0  0  0  0  0  0  0  0  0  0  0  0
    4.8479    1.0699   -2.6648 C   0  0  0  0  0  0  0  0  0  0  0  0
    3.0566   -0.6951    0.9266 N   0  0  0  0  0  0  0  0  0  0  0  0
    2.5162   -1.8579    1.6049 C   0  0  0  0  0  0  0  0  0  0  0  0
    2.6963   -1.5081    3.0681 C   0  0  0  0  0  0  0  0  0  0  0  0
    4.0661   -0.8157    3.0943 C   0  0  1  0  0  0  0  0  0  0  0  0
    5.2753   -1.7643    3.1764 C   0  0  0  0  0  0  0  0  0  0  0  0
    5.2339   -2.6878    4.3942 C   0  0  0  0  0  0  0  0  0  0  0  0
    5.3388   -2.0714    5.8112 C   0  0  0  0  0  0  0  0  0  0  0  0
    6.3556   -3.1653    6.1785 C   0  0  0  0  0  0  0  0  0  0  0  0
    6.5598   -3.4348    4.6804 C   0  0  0  0  0  0  0  0  0  0  0  0
    4.0562   -0.0337    1.7626 C   0  0  0  0  0  0  0  0  0  0  0  0
    3.7407    1.5380   -0.2093 H   0  0  0  0  0  0  0  0  0  0  0  0
    2.2724    1.7967   -1.1253 H   0  0  0  0  0  0  0  0  0  0  0  0
    2.1528   -1.0280   -2.4574 H   0  0  0  0  0  0  0  0  0  0  0  0
    5.0744   -1.0762   -5.3055 H   0  0  0  0  0  0  0  0  0  0  0  0
    6.9486    0.5549   -5.3342 H   0  0  0  0  0  0  0  0  0  0  0  0
    8.1024    2.4888   -4.3338 H   0  0  0  0  0  0  0  0  0  0  0  0
    7.1956    3.5501   -2.2868 H   0  0  0  0  0  0  0  0  0  0  0  0
    5.1655    2.6957   -1.2395 H   0  0  0  0  0  0  0  0  0  0  0  0
    3.1364   -2.7188    1.3258 H   0  0  0  0  0  0  0  0  0  0  0  0
    1.4796   -2.0743    1.3368 H   0  0  0  0  0  0  0  0  0  0  0  0
    2.5943   -2.3701    3.7262 H   0  0  0  0  0  0  0  0  0  0  0  0
    1.9251   -0.7798    3.3530 H   0  0  0  0  0  0  0  0  0  0  0  0
    4.1169   -0.1182    3.9384 H   0  0  0  0  0  0  0  0  0  0  0  0
    6.1854   -1.1495    3.2090 H   0  0  0  0  0  0  0  0  0  0  0  0
    5.3494   -2.3728    2.2677 H   0  0  0  0  0  0  0  0  0  0  0  0
    4.4047   -3.4047    4.3246 H   0  0  0  0  0  0  0  0  0  0  0  0
    4.4130   -2.1004    6.3948 H   0  0  0  0  0  0  0  0  0  0  0  0
    5.7508   -1.0580    5.8493 H   0  0  0  0  0  0  0  0  0  0  0  0
    5.9248   -4.0109    6.7253 H   0  0  0  0  0  0  0  0  0  0  0  0
    7.2443   -2.8144    6.7110 H   0  0  0  0  0  0  0  0  0  0  0  0
    6.5607   -4.4925    4.3996 H   0  0  0  0  0  0  0  0  0  0  0  0
    7.4587   -2.9614    4.2710 H   0  0  0  0  0  0  0  0  0  0  0  0
    5.0216   -0.0271    1.2462 H   0  0  0  0  0  0  0  0  0  0  0  0
    3.7356    0.9995    1.9358 H   0  0  0  0  0  0  0  0  0  0  0  0
  1  2  2  0  0  0  0
  2  3  1  0  0  0  0
  2 14  1  0  0  0  0
  3  4  1  0  0  0  0
  3 24  1  0  0  0  0
  3 25  1  0  0  0  0
  4  5  1  0  0  0  0
  4 13  2  0  0  0  0
  5  6  2  0  0  0  0
  5 26  1  0  0  0  0
  6  7  1  0  0  0  0
  7  8  2  0  0  0  0
  7 27  1  0  0  0  0
  8  9  1  0  0  0  0
  8 13  1  0  0  0  0
  9 10  2  0  0  0  0
  9 28  1  0  0  0  0
 10 11  1  0  0  0  0
 10 29  1  0  0  0  0
 11 12  2  0  0  0  0
 11 30  1  0  0  0  0
 12 13  1  0  0  0  0
 12 31  1  0  0  0  0
 14 15  1  0  0  0  0
 14 23  1  0  0  0  0
 15 16  1  0  0  0  0
 15 32  1  0  0  0  0
 15 33  1  0  0  0  0
 16 17  1  0  0  0  0
 16 34  1  0  0  0  0
 16 35  1  0  0  0  0
 17 18  1  0  0  0  0
 17 23  1  0  0  0  0
 17 36  1  1  0  0  0
 18 19  1  0  0  0  0
 18 37  1  0  0  0  0
 18 38  1  0  0  0  0
 19 20  1  0  0  0  0
 19 22  1  0  0  0  0
 19 39  1  0  0  0  0
 20 21  1  0  0  0  0
 20 40  1  0  0  0  0
 20 41  1  0  0  0  0
 21 22  1  0  0  0  0
 21 42  1  0  0  0  0
 21 43  1  0  0  0  0
 22 44  1  0  0  0  0
 22 45  1  0  0  0  0
 23 46  1  0  0  0  0
 23 47  1  0  0  0  0
M  END
$$$$
