
 OpenBabel07202414173D

 66 71  0  0  1  0  0  0  0  0999 V2000
    0.9819    0.2533   -0.0641 Cl  0  0  0  0  0  0  0  0  0  0  0  0
    2.6972    0.1203   -0.0207 C   0  0  0  0  0  0  0  0  0  0  0  0
    3.4836    1.2567   -0.1534 C   0  0  0  0  0  0  0  0  0  0  0  0
    4.8708    1.1341   -0.1103 C   0  0  0  0  0  0  0  0  0  0  0  0
    5.4694   -0.1189    0.0623 C   0  0  0  0  0  0  0  0  0  0  0  0
    4.6938   -1.2817    0.1653 C   0  0  0  0  0  0  0  0  0  0  0  0
    3.2895   -1.1335    0.1428 C   0  0  0  0  0  0  0  0  0  0  0  0
    5.3447   -2.6762    0.3388 C   0  0  3  0  0  0  0  0  0  0  0  0
    4.7238   -3.6271   -0.7376 C   0  0  0  0  0  0  0  0  0  0  0  0
    5.2980   -5.0326   -0.8376 C   0  0  0  0  0  0  0  0  0  0  0  0
    6.2703   -5.3752   -0.1653 O   0  0  0  0  0  0  0  0  0  0  0  0
    4.6508   -5.9269   -1.6745 N   0  0  0  0  0  0  0  0  0  0  0  0
    3.6109   -5.5790   -2.6492 C   0  0  0  0  0  0  0  0  0  0  0  0
    2.2754   -6.2236   -2.2660 C   0  0  0  0  0  0  0  0  0  0  0  0
    2.4713   -7.7289   -2.0790 C   0  0  3  0  0  0  0  0  0  0  0  0
    1.2371   -8.4763   -1.5865 C   0  0  0  0  0  0  0  0  0  0  0  0
    1.8842  -10.0033   -0.9005 S   0  0  0  0  0  0  0  0  0  0  0  0
    1.3837  -10.1467    0.4507 O   0  0  0  0  0  0  0  0  0  0  0  0
    1.7532  -11.0494   -1.8921 O   0  0  0  0  0  0  0  0  0  0  0  0
    3.6056   -9.5033   -0.8302 C   0  0  0  0  0  0  0  0  0  0  0  0
    3.5705   -7.9936   -1.0302 C   0  0  3  0  0  0  0  0  0  0  0  0
    4.8834   -7.3657   -1.4919 C   0  0  0  0  0  0  0  0  0  0  0  0
    5.0511   -3.1947    1.8004 C   0  0  0  0  0  0  0  0  0  0  0  0
    4.3196   -2.5786    2.5634 O   0  0  0  0  0  0  0  0  0  0  0  0
    5.6777   -4.3851    2.1459 N   0  0  0  0  0  0  0  0  0  0  0  0
    5.7191   -4.9998    3.4215 C   0  0  0  0  0  0  0  0  0  0  0  0
    4.8902   -4.6132    4.4780 C   0  0  0  0  0  0  0  0  0  0  0  0
    5.0159   -5.0458    5.7533 N   0  0  0  0  0  0  0  0  0  0  0  0
    5.9842   -5.9530    5.9874 C   0  0  0  0  0  0  0  0  0  0  0  0
    6.7793   -6.5323    5.0001 C   0  0  0  0  0  0  0  0  0  0  0  0
    7.6695   -7.5774    5.3098 C   0  0  0  0  0  0  0  0  0  0  0  0
    8.4545   -8.1631    4.3203 C   0  0  0  0  0  0  0  0  0  0  0  0
    8.3879   -7.6813    3.0219 C   0  0  0  0  0  0  0  0  0  0  0  0
    7.5153   -6.6357    2.7093 C   0  0  0  0  0  0  0  0  0  0  0  0
    6.6629   -6.0431    3.6772 C   0  0  0  0  0  0  0  0  0  0  0  0
    6.8666   -2.5292    0.0771 C   0  0  0  0  0  0  0  0  0  0  0  0
    7.4219   -1.2539    0.6792 C   0  0  0  0  0  0  0  0  0  0  0  0
    6.8345   -0.1027    0.0859 O   0  0  0  0  0  0  0  0  0  0  0  0
    3.0293    2.2356   -0.2752 H   0  0  0  0  0  0  0  0  0  0  0  0
    5.4933    2.0216   -0.1954 H   0  0  0  0  0  0  0  0  0  0  0  0
    2.6402   -1.9939    0.2878 H   0  0  0  0  0  0  0  0  0  0  0  0
    4.8457   -3.1593   -1.7227 H   0  0  0  0  0  0  0  0  0  0  0  0
    3.6521   -3.7502   -0.5441 H   0  0  0  0  0  0  0  0  0  0  0  0
    3.9462   -5.9590   -3.6219 H   0  0  0  0  0  0  0  0  0  0  0  0
    3.4941   -4.4989   -2.7532 H   0  0  0  0  0  0  0  0  0  0  0  0
    1.5270   -6.0259   -3.0394 H   0  0  0  0  0  0  0  0  0  0  0  0
    1.9124   -5.7749   -1.3324 H   0  0  0  0  0  0  0  0  0  0  0  0
    2.7814   -8.1672   -3.0390 H   0  0  0  0  0  0  0  0  0  0  0  0
    0.5425   -8.7090   -2.3979 H   0  0  0  0  0  0  0  0  0  0  0  0
    0.7183   -7.9373   -0.7898 H   0  0  0  0  0  0  0  0  0  0  0  0
    4.1383  -10.0142   -1.6374 H   0  0  0  0  0  0  0  0  0  0  0  0
    4.0257   -9.7870    0.1372 H   0  0  0  0  0  0  0  0  0  0  0  0
    3.2697   -7.5269   -0.0795 H   0  0  0  0  0  0  0  0  0  0  0  0
    5.2130   -7.7787   -2.4524 H   0  0  0  0  0  0  0  0  0  0  0  0
    5.6718   -7.5573   -0.7572 H   0  0  0  0  0  0  0  0  0  0  0  0
    6.2606   -4.8056    1.4290 H   0  0  0  0  0  0  0  0  0  0  0  0
    4.0532   -3.9361    4.3386 H   0  0  0  0  0  0  0  0  0  0  0  0
    6.1049   -6.2172    7.0350 H   0  0  0  0  0  0  0  0  0  0  0  0
    7.7361   -7.9610    6.3257 H   0  0  0  0  0  0  0  0  0  0  0  0
    9.1132   -8.9928    4.5624 H   0  0  0  0  0  0  0  0  0  0  0  0
    9.0082   -8.1195    2.2434 H   0  0  0  0  0  0  0  0  0  0  0  0
    7.5120   -6.3095    1.6744 H   0  0  0  0  0  0  0  0  0  0  0  0
    7.0423   -2.4952   -1.0067 H   0  0  0  0  0  0  0  0  0  0  0  0
    7.4481   -3.3681    0.4694 H   0  0  0  0  0  0  0  0  0  0  0  0
    8.4951   -1.2011    0.4656 H   0  0  0  0  0  0  0  0  0  0  0  0
    7.3081   -1.2169    1.7690 H   0  0  0  0  0  0  0  0  0  0  0  0
  1  2  1  0  0  0  0
  2  3  1  0  0  0  0
  2  7  2  0  0  0  0
  3  4  2  0  0  0  0
  3 39  1  0  0  0  0
  4  5  1  0  0  0  0
  4 40  1  0  0  0  0
  5  6  2  0  0  0  0
  5 38  1  0  0  0  0
  6  7  1  0  0  0  0
  6  8  1  0  0  0  0
  7 41  1  0  0  0  0
  8  9  1  0  0  0  0
  8 23  1  0  0  0  0
  8 36  1  0  0  0  0
  9 10  1  0  0  0  0
  9 42  1  0  0  0  0
  9 43  1  0  0  0  0
 10 11  2  0  0  0  0
 10 12  1  0  0  0  0
 12 13  1  0  0  0  0
 12 22  1  0  0  0  0
 13 14  1  0  0  0  0
 13 44  1  0  0  0  0
 13 45  1  0  0  0  0
 14 15  1  0  0  0  0
 14 46  1  0  0  0  0
 14 47  1  0  0  0  0
 15 16  1  0  0  0  0
 15 21  1  0  0  0  0
 15 48  1  0  0  0  0
 16 17  1  0  0  0  0
 16 49  1  0  0  0  0
 16 50  1  0  0  0  0
 17 18  2  0  0  0  0
 17 19  2  0  0  0  0
 17 20  1  0  0  0  0
 20 21  1  0  0  0  0
 20 51  1  0  0  0  0
 20 52  1  0  0  0  0
 21 22  1  0  0  0  0
 21 53  1  0  0  0  0
 22 54  1  0  0  0  0
 22 55  1  0  0  0  0
 23 24  2  0  0  0  0
 23 25  1  0  0  0  0
 25 26  1  0  0  0  0
 25 56  1  0  0  0  0
 26 27  1  0  0  0  0
 26 35  2  0  0  0  0
 27 28  2  0  0  0  0
 27 57  1  0  0  0  0
 28 29  1  0  0  0  0
 29 30  2  0  0  0  0
 29 58  1  0  0  0  0
 30 31  1  0  0  0  0
 30 35  1  0  0  0  0
 31 32  2  0  0  0  0
 31 59  1  0  0  0  0
 32 33  1  0  0  0  0
 32 60  1  0  0  0  0
 33 34  2  0  0  0  0
 33 61  1  0  0  0  0
 34 35  1  0  0  0  0
 34 62  1  0  0  0  0
 36 37  1  0  0  0  0
 36 63  1  0  0  0  0
 36 64  1  0  0  0  0
 37 38  1  0  0  0  0
 37 65  1  0  0  0  0
 37 66  1  0  0  0  0
M  END
$$$$
