
 OpenBabel07202414133D

 52 55  0  0  0  0  0  0  0  0999 V2000
    1.4545   -0.9738    0.9305 C   0  0  0  0  0  0  0  0  0  0  0  0
    2.4506   -0.1093    0.2977 N   0  0  0  0  0  0  0  0  0  0  0  0
    2.2666    0.1225   -1.1478 C   0  0  0  0  0  0  0  0  0  0  0  0
    3.4093   -0.4020   -2.0000 C   0  0  0  0  0  0  0  0  0  0  0  0
    4.1458   -1.5426   -1.6454 C   0  0  0  0  0  0  0  0  0  0  0  0
    5.1883   -2.0017   -2.4576 C   0  0  0  0  0  0  0  0  0  0  0  0
    5.4921   -1.3323   -3.6407 C   0  0  0  0  0  0  0  0  0  0  0  0
    6.7853   -1.8851   -4.6322 Cl  0  0  0  0  0  0  0  0  0  0  0  0
    4.7541   -0.2164   -4.0260 C   0  0  0  0  0  0  0  0  0  0  0  0
    3.7123    0.2417   -3.2137 C   0  0  0  0  0  0  0  0  0  0  0  0
    3.1317    0.8325    1.0781 C   0  0  0  0  0  0  0  0  0  0  0  0
    2.9209    0.9500    2.4692 C   0  0  0  0  0  0  0  0  0  0  0  0
    3.5947    1.8943    3.2699 C   0  0  0  0  0  0  0  0  0  0  0  0
    3.3728    1.9431    4.7651 C   0  0  0  0  0  0  0  0  0  0  0  0
    1.9409    2.1625    5.2231 C   0  0  0  0  0  0  0  0  0  0  0  0
    1.4425    1.4517    6.0937 O   0  0  0  0  0  0  0  0  0  0  0  0
    1.2934    3.2240    4.6171 N   0  0  0  0  0  0  0  0  0  0  0  0
   -0.0216    3.6201    4.9686 C   0  0  0  0  0  0  0  0  0  0  0  0
   -0.4142    3.7101    6.3062 C   0  0  0  0  0  0  0  0  0  0  0  0
   -1.6293    4.1393    6.7199 N   0  0  0  0  0  0  0  0  0  0  0  0
   -2.5140    4.4567    5.7506 C   0  0  0  0  0  0  0  0  0  0  0  0
   -2.2506    4.3854    4.3839 C   0  0  0  0  0  0  0  0  0  0  0  0
   -3.2374    4.6909    3.4300 C   0  0  0  0  0  0  0  0  0  0  0  0
   -2.9758    4.5584    2.0679 C   0  0  0  0  0  0  0  0  0  0  0  0
   -1.7246    4.1299    1.6424 C   0  0  0  0  0  0  0  0  0  0  0  0
   -0.7311    3.8397    2.5778 C   0  0  0  0  0  0  0  0  0  0  0  0
   -0.9649    3.9625    3.9696 C   0  0  0  0  0  0  0  0  0  0  0  0
    4.5334    2.7357    2.6707 C   0  0  0  0  0  0  0  0  0  0  0  0
    4.7859    2.6229    1.3086 C   0  0  0  0  0  0  0  0  0  0  0  0
    5.9701    3.6384    0.5782 Cl  0  0  0  0  0  0  0  0  0  0  0  0
    4.1005    1.6879    0.5282 C   0  0  0  0  0  0  0  0  0  0  0  0
    1.0200   -1.6790    0.2136 H   0  0  0  0  0  0  0  0  0  0  0  0
    0.6334   -0.3824    1.3513 H   0  0  0  0  0  0  0  0  0  0  0  0
    1.9112   -1.5825    1.7190 H   0  0  0  0  0  0  0  0  0  0  0  0
    2.1097    1.1925   -1.3355 H   0  0  0  0  0  0  0  0  0  0  0  0
    1.3533   -0.3727   -1.5032 H   0  0  0  0  0  0  0  0  0  0  0  0
    3.9233   -2.0720   -0.7213 H   0  0  0  0  0  0  0  0  0  0  0  0
    5.7591   -2.8766   -2.1573 H   0  0  0  0  0  0  0  0  0  0  0  0
    4.9838    0.3018   -4.9531 H   0  0  0  0  0  0  0  0  0  0  0  0
    3.1439    1.1126   -3.5312 H   0  0  0  0  0  0  0  0  0  0  0  0
    2.2183    0.2876    2.9711 H   0  0  0  0  0  0  0  0  0  0  0  0
    3.9789    2.7343    5.2219 H   0  0  0  0  0  0  0  0  0  0  0  0
    3.7219    0.9919    5.1864 H   0  0  0  0  0  0  0  0  0  0  0  0
    1.6357    3.5040    3.7074 H   0  0  0  0  0  0  0  0  0  0  0  0
    0.2734    3.4757    7.1153 H   0  0  0  0  0  0  0  0  0  0  0  0
   -3.4800    4.7918    6.1215 H   0  0  0  0  0  0  0  0  0  0  0  0
   -4.2284    5.0109    3.7467 H   0  0  0  0  0  0  0  0  0  0  0  0
   -3.7533    4.7758    1.3398 H   0  0  0  0  0  0  0  0  0  0  0  0
   -1.5215    4.0048    0.5818 H   0  0  0  0  0  0  0  0  0  0  0  0
    0.2210    3.4757    2.1987 H   0  0  0  0  0  0  0  0  0  0  0  0
    5.0904    3.4580    3.2629 H   0  0  0  0  0  0  0  0  0  0  0  0
    4.3664    1.6228   -0.5220 H   0  0  0  0  0  0  0  0  0  0  0  0
  1  2  1  0  0  0  0
  1 32  1  0  0  0  0
  1 33  1  0  0  0  0
  1 34  1  0  0  0  0
  2  3  1  0  0  0  0
  2 11  1  0  0  0  0
  3  4  1  0  0  0  0
  3 35  1  0  0  0  0
  3 36  1  0  0  0  0
  4  5  2  0  0  0  0
  4 10  1  0  0  0  0
  5  6  1  0  0  0  0
  5 37  1  0  0  0  0
  6  7  2  0  0  0  0
  6 38  1  0  0  0  0
  7  8  1  0  0  0  0
  7  9  1  0  0  0  0
  9 10  2  0  0  0  0
  9 39  1  0  0  0  0
 10 40  1  0  0  0  0
 11 12  2  0  0  0  0
 11 31  1  0  0  0  0
 12 13  1  0  0  0  0
 12 41  1  0  0  0  0
 13 14  1  0  0  0  0
 13 28  2  0  0  0  0
 14 15  1  0  0  0  0
 14 42  1  0  0  0  0
 14 43  1  0  0  0  0
 15 16  2  0  0  0  0
 15 17  1  0  0  0  0
 17 18  1  0  0  0  0
 17 44  1  0  0  0  0
 18 19  2  0  0  0  0
 18 27  1  0  0  0  0
 19 20  1  0  0  0  0
 19 45  1  0  0  0  0
 20 21  2  0  0  0  0
 21 22  1  0  0  0  0
 21 46  1  0  0  0  0
 22 23  2  0  0  0  0
 22 27  1  0  0  0  0
 23 24  1  0  0  0  0
 23 47  1  0  0  0  0
 24 25  2  0  0  0  0
 24 48  1  0  0  0  0
 25 26  1  0  0  0  0
 25 49  1  0  0  0  0
 26 27  2  0  0  0  0
 26 50  1  0  0  0  0
 28 29  1  0  0  0  0
 28 51  1  0  0  0  0
 29 30  1  0  0  0  0
 29 31  2  0  0  0  0
 31 52  1  0  0  0  0
M  END
$$$$
