
 OpenBabel07202414173D

 40 44  0  0  1  0  0  0  0  0999 V2000
    1.3269    0.1532   -0.3290 Cl  0  0  0  0  0  0  0  0  0  0  0  0
    3.0243   -0.0141   -0.0883 C   0  0  0  0  0  0  0  0  0  0  0  0
    3.5430   -1.2431    0.3634 C   0  0  0  0  0  0  0  0  0  0  0  0
    4.9143   -1.4000    0.6053 C   0  0  0  0  0  0  0  0  0  0  0  0
    5.7313   -0.3121    0.3768 C   0  0  0  0  0  0  0  0  0  0  0  0
    5.2133    0.8756   -0.1629 C   0  0  0  0  0  0  0  0  0  0  0  0
    3.8633    1.0627   -0.3733 C   0  0  0  0  0  0  0  0  0  0  0  0
    6.4042    1.7066   -0.5211 C   0  0  3  0  0  0  0  0  0  0  0  0
    7.1527    0.9998   -1.6676 C   0  0  0  0  0  0  0  0  0  0  0  0
    7.8251   -0.1954   -0.9478 C   0  0  0  0  0  0  0  0  0  0  0  0
    7.2264   -0.0966    0.4577 C   0  0  3  0  0  0  0  0  0  0  0  0
    7.9713   -0.8540    1.5677 C   0  0  0  0  0  0  0  0  0  0  0  0
    8.1299   -2.0702    1.5107 O   0  0  0  0  0  0  0  0  0  0  0  0
    8.4015   -0.0150    2.5869 N   0  0  0  0  0  0  0  0  0  0  0  0
    8.9853   -0.3833    3.8309 C   0  0  0  0  0  0  0  0  0  0  0  0
    9.1696   -1.7144    4.2095 C   0  0  0  0  0  0  0  0  0  0  0  0
    9.5901   -2.1245    5.4305 N   0  0  0  0  0  0  0  0  0  0  0  0
    9.8857   -1.1570    6.3184 C   0  0  0  0  0  0  0  0  0  0  0  0
    9.8341    0.2071    6.0439 C   0  0  0  0  0  0  0  0  0  0  0  0
   10.2460    1.1439    7.0101 C   0  0  0  0  0  0  0  0  0  0  0  0
   10.2349    2.5067    6.7298 C   0  0  0  0  0  0  0  0  0  0  0  0
    9.7849    2.9447    5.4907 C   0  0  0  0  0  0  0  0  0  0  0  0
    9.3537    2.0199    4.5273 C   0  0  0  0  0  0  0  0  0  0  0  0
    9.3712    0.6190    4.7717 C   0  0  0  0  0  0  0  0  0  0  0  0
    7.2433    1.3629    0.6182 O   0  0  0  0  0  0  0  0  0  0  0  0
    2.8734   -2.0864    0.5182 H   0  0  0  0  0  0  0  0  0  0  0  0
    5.3145   -2.3555    0.9319 H   0  0  0  0  0  0  0  0  0  0  0  0
    3.4735    1.9967   -0.7623 H   0  0  0  0  0  0  0  0  0  0  0  0
    6.2377    2.7804   -0.6163 H   0  0  0  0  0  0  0  0  0  0  0  0
    7.9164    1.6445   -2.1119 H   0  0  0  0  0  0  0  0  0  0  0  0
    6.4778    0.6641   -2.4647 H   0  0  0  0  0  0  0  0  0  0  0  0
    8.9105   -0.0414   -0.9220 H   0  0  0  0  0  0  0  0  0  0  0  0
    7.6260   -1.1525   -1.4407 H   0  0  0  0  0  0  0  0  0  0  0  0
    8.1873    0.9632    2.4335 H   0  0  0  0  0  0  0  0  0  0  0  0
    8.9737   -2.5417    3.5368 H   0  0  0  0  0  0  0  0  0  0  0  0
   10.1827   -1.5257    7.2981 H   0  0  0  0  0  0  0  0  0  0  0  0
   10.6006    0.8126    7.9855 H   0  0  0  0  0  0  0  0  0  0  0  0
   10.5864    3.2208    7.4690 H   0  0  0  0  0  0  0  0  0  0  0  0
    9.7838    4.0060    5.2593 H   0  0  0  0  0  0  0  0  0  0  0  0
    9.0376    2.4199    3.5702 H   0  0  0  0  0  0  0  0  0  0  0  0
  1  2  1  0  0  0  0
  2  3  1  0  0  0  0
  2  7  2  0  0  0  0
  3  4  2  0  0  0  0
  3 26  1  0  0  0  0
  4  5  1  0  0  0  0
  4 27  1  0  0  0  0
  5  6  2  0  0  0  0
  5 11  1  0  0  0  0
  6  7  1  0  0  0  0
  6  8  1  0  0  0  0
  7 28  1  0  0  0  0
  8  9  1  0  0  0  0
  8 25  1  0  0  0  0
  8 29  1  0  0  0  0
  9 10  1  0  0  0  0
  9 30  1  0  0  0  0
  9 31  1  0  0  0  0
 10 11  1  0  0  0  0
 10 32  1  0  0  0  0
 10 33  1  0  0  0  0
 11 12  1  0  0  0  0
 11 25  1  0  0  0  0
 12 13  2  0  0  0  0
 12 14  1  0  0  0  0
 14 15  1  0  0  0  0
 14 34  1  0  0  0  0
 15 16  1  0  0  0  0
 15 24  2  0  0  0  0
 16 17  2  0  0  0  0
 16 35  1  0  0  0  0
 17 18  1  0  0  0  0
 18 19  2  0  0  0  0
 18 36  1  0  0  0  0
 19 20  1  0  0  0  0
 19 24  1  0  0  0  0
 20 21  2  0  0  0  0
 20 37  1  0  0  0  0
 21 22  1  0  0  0  0
 21 38  1  0  0  0  0
 22 23  2  0  0  0  0
 22 39  1  0  0  0  0
 23 24  1  0  0  0  0
 23 40  1  0  0  0  0
M  END
$$$$
