
 OpenBabel07202414153D

 42 45  0  0  1  0  0  0  0  0999 V2000
    0.8791    0.0034    0.3154 C   0  0  0  0  0  0  0  0  0  0  0  0
    2.3970    0.0951    0.4135 C   0  0  2  0  0  0  0  0  0  0  0  0
    3.0018   -1.1194    1.1102 C   0  0  0  0  0  0  0  0  0  0  0  0
    4.4332   -1.1352    1.0624 O   0  0  0  0  0  0  0  0  0  0  0  0
    5.0763    0.0706    1.0973 C   0  0  0  0  0  0  0  0  0  0  0  0
    6.4695    0.0119    1.1320 C   0  0  0  0  0  0  0  0  0  0  0  0
    7.2194    1.1859    1.1913 C   0  0  0  0  0  0  0  0  0  0  0  0
    6.5767    2.4226    1.2141 C   0  0  0  0  0  0  0  0  0  0  0  0
    5.1835    2.4865    1.1757 C   0  0  0  0  0  0  0  0  0  0  0  0
    4.4237    1.3095    1.1064 C   0  0  0  0  0  0  0  0  0  0  0  0
    2.9093    1.3719    1.0982 C   0  0  2  0  0  0  0  0  0  0  0  0
    2.3058    1.6241    2.5017 C   0  0  0  0  0  0  0  0  0  0  0  0
    1.2122    2.1747    2.6026 O   0  0  0  0  0  0  0  0  0  0  0  0
    3.0544    1.1492    3.5653 N   0  0  0  0  0  0  0  0  0  0  0  0
    2.8568    1.3858    4.9521 C   0  0  0  0  0  0  0  0  0  0  0  0
    1.8160    2.1732    5.4449 C   0  0  0  0  0  0  0  0  0  0  0  0
    1.6706    2.5299    6.7437 N   0  0  0  0  0  0  0  0  0  0  0  0
    2.5853    2.0461    7.6074 C   0  0  0  0  0  0  0  0  0  0  0  0
    3.6200    1.1788    7.2612 C   0  0  0  0  0  0  0  0  0  0  0  0
    4.4761    0.6522    8.2462 C   0  0  0  0  0  0  0  0  0  0  0  0
    5.4942   -0.2321    7.9042 C   0  0  0  0  0  0  0  0  0  0  0  0
    5.6856   -0.5746    6.5728 C   0  0  0  0  0  0  0  0  0  0  0  0
    4.8470   -0.0482    5.5855 C   0  0  0  0  0  0  0  0  0  0  0  0
    3.7771    0.8349    5.8965 C   0  0  0  0  0  0  0  0  0  0  0  0
    0.5860   -0.8872   -0.2493 H   0  0  0  0  0  0  0  0  0  0  0  0
    0.4740    0.8735   -0.2121 H   0  0  0  0  0  0  0  0  0  0  0  0
    0.4058   -0.0626    1.2990 H   0  0  0  0  0  0  0  0  0  0  0  0
    2.7802    0.1025   -0.6195 H   0  0  0  0  0  0  0  0  0  0  0  0
    2.6624   -2.0382    0.6181 H   0  0  0  0  0  0  0  0  0  0  0  0
    2.6863   -1.1942    2.1571 H   0  0  0  0  0  0  0  0  0  0  0  0
    6.9718   -0.9520    1.1133 H   0  0  0  0  0  0  0  0  0  0  0  0
    8.3068    1.1355    1.2154 H   0  0  0  0  0  0  0  0  0  0  0  0
    7.1625    3.3376    1.2634 H   0  0  0  0  0  0  0  0  0  0  0  0
    4.6959    3.4607    1.1989 H   0  0  0  0  0  0  0  0  0  0  0  0
    2.6158    2.2321    0.4799 H   0  0  0  0  0  0  0  0  0  0  0  0
    3.9155    0.6784    3.3305 H   0  0  0  0  0  0  0  0  0  0  0  0
    1.0398    2.5805    4.8068 H   0  0  0  0  0  0  0  0  0  0  0  0
    2.4510    2.3839    8.6326 H   0  0  0  0  0  0  0  0  0  0  0  0
    4.3381    0.9122    9.2940 H   0  0  0  0  0  0  0  0  0  0  0  0
    6.1318   -0.6576    8.6754 H   0  0  0  0  0  0  0  0  0  0  0  0
    6.4804   -1.2637    6.2974 H   0  0  0  0  0  0  0  0  0  0  0  0
    5.0398   -0.3668    4.5645 H   0  0  0  0  0  0  0  0  0  0  0  0
  1  2  1  0  0  0  0
  1 25  1  0  0  0  0
  1 26  1  0  0  0  0
  1 27  1  0  0  0  0
  2  3  1  0  0  0  0
  2 11  1  0  0  0  0
  2 28  1  6  0  0  0
  3  4  1  0  0  0  0
  3 29  1  0  0  0  0
  3 30  1  0  0  0  0
  4  5  1  0  0  0  0
  5  6  1  0  0  0  0
  5 10  2  0  0  0  0
  6  7  2  0  0  0  0
  6 31  1  0  0  0  0
  7  8  1  0  0  0  0
  7 32  1  0  0  0  0
  8  9  2  0  0  0  0
  8 33  1  0  0  0  0
  9 10  1  0  0  0  0
  9 34  1  0  0  0  0
 10 11  1  0  0  0  0
 11 12  1  0  0  0  0
 11 35  1  6  0  0  0
 12 13  2  0  0  0  0
 12 14  1  0  0  0  0
 14 15  1  0  0  0  0
 14 36  1  0  0  0  0
 15 16  1  0  0  0  0
 15 24  2  0  0  0  0
 16 17  2  0  0  0  0
 16 37  1  0  0  0  0
 17 18  1  0  0  0  0
 18 19  2  0  0  0  0
 18 38  1  0  0  0  0
 19 20  1  0  0  0  0
 19 24  1  0  0  0  0
 20 21  2  0  0  0  0
 20 39  1  0  0  0  0
 21 22  1  0  0  0  0
 21 40  1  0  0  0  0
 22 23  2  0  0  0  0
 22 41  1  0  0  0  0
 23 24  1  0  0  0  0
 23 42  1  0  0  0  0
M  END
$$$$
