
 OpenBabel07202414183D

 59 62  0  0  1  0  0  0  0  0999 V2000
    0.9916    2.7002    0.9752 F   0  0  0  0  0  0  0  0  0  0  0  0
    2.2862    2.4352    0.6661 C   0  0  0  0  0  0  0  0  0  0  0  0
    2.6057    3.2258   -0.3877 F   0  0  0  0  0  0  0  0  0  0  0  0
    3.0737    2.8138    1.7842 O   0  0  0  0  0  0  0  0  0  0  0  0
    4.3255    2.2747    1.8399 C   0  0  0  0  0  0  0  0  0  0  0  0
    5.0446    1.7799    0.7639 C   0  0  0  0  0  0  0  0  0  0  0  0
    6.3258    1.2408    0.9645 C   0  0  0  0  0  0  0  0  0  0  0  0
    6.9690    1.2271    2.2188 C   0  0  0  0  0  0  0  0  0  0  0  0
    8.3461    0.7338    2.3668 N   0  0  0  0  0  0  0  0  0  0  0  0
    8.8814    0.2730    3.6970 C   0  0  3  0  0  0  0  0  0  0  0  0
    9.6727    1.4091    4.4286 C   0  0  0  0  0  0  0  0  0  0  0  0
   10.6911    1.1816    5.0849 O   0  0  0  0  0  0  0  0  0  0  0  0
    9.0176    2.6252    4.5399 N   0  0  0  0  0  0  0  0  0  0  0  0
    9.5583    3.6790    5.3770 C   0  0  0  0  0  0  0  0  0  0  0  0
    8.5600    4.8156    5.6104 C   0  0  0  0  0  0  0  0  0  0  0  0
    9.2286    5.9663    6.3202 C   0  0  0  0  0  0  0  0  0  0  0  0
    9.1769    6.0822    7.7171 C   0  0  0  0  0  0  0  0  0  0  0  0
    9.8852    7.0954    8.3705 C   0  0  0  0  0  0  0  0  0  0  0  0
   10.6499    7.9986    7.6339 C   0  0  0  0  0  0  0  0  0  0  0  0
   10.6880    7.8923    6.2493 C   0  0  0  0  0  0  0  0  0  0  0  0
   11.4274    8.7546    5.5400 F   0  0  0  0  0  0  0  0  0  0  0  0
    9.9851    6.8914    5.5882 C   0  0  0  0  0  0  0  0  0  0  0  0
    7.9088   -0.4336    4.6586 C   0  0  0  0  0  0  0  0  0  0  0  0
    6.9036   -1.2972    4.2097 C   0  0  0  0  0  0  0  0  0  0  0  0
    6.0147   -1.8680    5.1203 C   0  0  0  0  0  0  0  0  0  0  0  0
    6.1853   -1.6004    6.4659 C   0  0  0  0  0  0  0  0  0  0  0  0
    7.1848   -0.8411    6.9524 N   0  0  0  0  0  0  0  0  0  0  0  0
    8.0315   -0.2970    6.0475 C   0  0  0  0  0  0  0  0  0  0  0  0
    9.2200    0.7963    1.2223 C   0  0  0  0  0  0  0  0  0  0  0  0
    8.8615    1.2976    0.1527 O   0  0  0  0  0  0  0  0  0  0  0  0
   10.6166    0.3057    1.2513 C   0  0  0  0  0  0  0  0  0  0  0  0
   11.4334    0.2527    0.1239 C   0  0  0  0  0  0  0  0  0  0  0  0
   12.6454   -0.1998    0.5487 N   0  0  0  0  0  0  0  0  0  0  0  0
   12.5515   -0.4103    1.8893 C   0  0  0  0  0  0  0  0  0  0  0  0
   11.3476   -0.1201    2.3383 N   0  0  0  0  0  0  0  0  0  0  0  0
    6.2034    1.7128    3.2892 C   0  0  0  0  0  0  0  0  0  0  0  0
    4.9125    2.2390    3.1004 C   0  0  0  0  0  0  0  0  0  0  0  0
    2.3713    1.3763    0.3970 H   0  0  0  0  0  0  0  0  0  0  0  0
    4.6619    1.8065   -0.2523 H   0  0  0  0  0  0  0  0  0  0  0  0
    6.7891    0.8148    0.0778 H   0  0  0  0  0  0  0  0  0  0  0  0
    9.5922   -0.5283    3.4955 H   0  0  0  0  0  0  0  0  0  0  0  0
    8.3779    2.8800    3.7987 H   0  0  0  0  0  0  0  0  0  0  0  0
   10.4695    4.0401    4.8886 H   0  0  0  0  0  0  0  0  0  0  0  0
    9.8575    3.2433    6.3399 H   0  0  0  0  0  0  0  0  0  0  0  0
    7.6992    4.4578    6.1901 H   0  0  0  0  0  0  0  0  0  0  0  0
    8.1489    5.1664    4.6552 H   0  0  0  0  0  0  0  0  0  0  0  0
    8.5997    5.3741    8.3092 H   0  0  0  0  0  0  0  0  0  0  0  0
    9.8516    7.1706    9.4546 H   0  0  0  0  0  0  0  0  0  0  0  0
   11.2204    8.7780    8.1280 H   0  0  0  0  0  0  0  0  0  0  0  0
   10.0538    6.8291    4.5061 H   0  0  0  0  0  0  0  0  0  0  0  0
    6.7816   -1.5065    3.1505 H   0  0  0  0  0  0  0  0  0  0  0  0
    5.2034   -2.5009    4.7821 H   0  0  0  0  0  0  0  0  0  0  0  0
    5.5083   -2.0027    7.2147 H   0  0  0  0  0  0  0  0  0  0  0  0
    8.8296    0.2772    6.5131 H   0  0  0  0  0  0  0  0  0  0  0  0
   11.2373    0.5115   -0.9064 H   0  0  0  0  0  0  0  0  0  0  0  0
   13.4698   -0.3379   -0.0240 H   0  0  0  0  0  0  0  0  0  0  0  0
   13.3835   -0.7651    2.4851 H   0  0  0  0  0  0  0  0  0  0  0  0
    6.5655    1.7215    4.3113 H   0  0  0  0  0  0  0  0  0  0  0  0
    4.3626    2.6197    3.9592 H   0  0  0  0  0  0  0  0  0  0  0  0
  1  2  1  0  0  0  0
  2  3  1  0  0  0  0
  2  4  1  0  0  0  0
  2 38  1  0  0  0  0
  4  5  1  0  0  0  0
  5  6  1  0  0  0  0
  5 37  2  0  0  0  0
  6  7  2  0  0  0  0
  6 39  1  0  0  0  0
  7  8  1  0  0  0  0
  7 40  1  0  0  0  0
  8  9  1  0  0  0  0
  8 36  2  0  0  0  0
  9 10  1  0  0  0  0
  9 29  1  0  0  0  0
 10 11  1  0  0  0  0
 10 23  1  0  0  0  0
 10 41  1  0  0  0  0
 11 12  2  0  0  0  0
 11 13  1  0  0  0  0
 13 14  1  0  0  0  0
 13 42  1  0  0  0  0
 14 15  1  0  0  0  0
 14 43  1  0  0  0  0
 14 44  1  0  0  0  0
 15 16  1  0  0  0  0
 15 45  1  0  0  0  0
 15 46  1  0  0  0  0
 16 17  1  0  0  0  0
 16 22  2  0  0  0  0
 17 18  2  0  0  0  0
 17 47  1  0  0  0  0
 18 19  1  0  0  0  0
 18 48  1  0  0  0  0
 19 20  2  0  0  0  0
 19 49  1  0  0  0  0
 20 21  1  0  0  0  0
 20 22  1  0  0  0  0
 22 50  1  0  0  0  0
 23 24  1  0  0  0  0
 23 28  2  0  0  0  0
 24 25  2  0  0  0  0
 24 51  1  0  0  0  0
 25 26  1  0  0  0  0
 25 52  1  0  0  0  0
 26 27  2  0  0  0  0
 26 53  1  0  0  0  0
 27 28  1  0  0  0  0
 28 54  1  0  0  0  0
 29 30  2  0  0  0  0
 29 31  1  0  0  0  0
 31 32  2  0  0  0  0
 31 35  1  0  0  0  0
 32 33  1  0  0  0  0
 32 55  1  0  0  0  0
 33 34  1  0  0  0  0
 33 56  1  0  0  0  0
 34 35  2  0  0  0  0
 34 57  1  0  0  0  0
 36 37  1  0  0  0  0
 36 58  1  0  0  0  0
 37 59  1  0  0  0  0
M  END
$$$$
