
 OpenBabel07202414193D

 44 47  0  0  1  0  0  0  0  0999 V2000
    1.3233   -0.8166    0.5372 O   0  0  0  0  0  0  0  0  0  0  0  0
    2.3557   -0.2501    0.1755 C   0  0  0  0  0  0  0  0  0  0  0  0
    2.9519   -0.5375   -1.1931 C   0  0  0  0  0  0  0  0  0  0  0  0
    2.5828    0.4410   -2.2859 C   0  0  0  0  0  0  0  0  0  0  0  0
    1.3197    1.0376   -2.2877 C   0  0  0  0  0  0  0  0  0  0  0  0
    0.8864    1.9126   -3.2197 N   0  0  0  0  0  0  0  0  0  0  0  0
    1.7396    2.1931   -4.2257 C   0  0  0  0  0  0  0  0  0  0  0  0
    3.0153    1.6469   -4.3598 C   0  0  0  0  0  0  0  0  0  0  0  0
    3.8453    1.9836   -5.4439 C   0  0  0  0  0  0  0  0  0  0  0  0
    5.1144    1.4272   -5.5704 C   0  0  0  0  0  0  0  0  0  0  0  0
    5.5609    0.5189   -4.6208 C   0  0  0  0  0  0  0  0  0  0  0  0
    4.7434    0.1737   -3.5417 C   0  0  0  0  0  0  0  0  0  0  0  0
    3.4536    0.7341   -3.3707 C   0  0  0  0  0  0  0  0  0  0  0  0
    3.0216    0.6467    0.9851 N   0  0  0  0  0  0  0  0  0  0  0  0
    2.5677    0.9201    2.3361 C   0  0  0  0  0  0  0  0  0  0  0  0
    2.9885    2.3576    2.5927 C   0  0  0  0  0  0  0  0  0  0  0  0
    4.2794    2.5221    1.7773 C   0  0  1  0  0  0  0  0  0  0  0  0
    5.5155    2.2526    2.6174 C   0  0  0  0  0  0  0  0  0  0  0  0
    6.1009    0.9854    2.7364 C   0  0  0  0  0  0  0  0  0  0  0  0
    7.2377    0.7955    3.5287 C   0  0  0  0  0  0  0  0  0  0  0  0
    7.7922    1.8695    4.2191 C   0  0  0  0  0  0  0  0  0  0  0  0
    9.1868    1.6307    5.1973 Cl  0  0  0  0  0  0  0  0  0  0  0  0
    7.2202    3.1340    4.1251 C   0  0  0  0  0  0  0  0  0  0  0  0
    6.0868    3.3239    3.3306 C   0  0  0  0  0  0  0  0  0  0  0  0
    4.0482    1.5976    0.5683 C   0  0  0  0  0  0  0  0  0  0  0  0
    2.6202   -1.5379   -1.4980 H   0  0  0  0  0  0  0  0  0  0  0  0
    4.0344   -0.6048   -1.0545 H   0  0  0  0  0  0  0  0  0  0  0  0
    0.5846    0.8253   -1.5151 H   0  0  0  0  0  0  0  0  0  0  0  0
    1.3495    2.8956   -4.9581 H   0  0  0  0  0  0  0  0  0  0  0  0
    3.5019    2.6873   -6.2018 H   0  0  0  0  0  0  0  0  0  0  0  0
    5.7487    1.6964   -6.4105 H   0  0  0  0  0  0  0  0  0  0  0  0
    6.5475    0.0724   -4.7167 H   0  0  0  0  0  0  0  0  0  0  0  0
    5.1361   -0.5550   -2.8378 H   0  0  0  0  0  0  0  0  0  0  0  0
    3.0881    0.2265    3.0061 H   0  0  0  0  0  0  0  0  0  0  0  0
    1.4901    0.7704    2.4477 H   0  0  0  0  0  0  0  0  0  0  0  0
    3.0917    2.5748    3.6605 H   0  0  0  0  0  0  0  0  0  0  0  0
    2.2204    3.0274    2.1859 H   0  0  0  0  0  0  0  0  0  0  0  0
    4.3595    3.5523    1.4054 H   0  0  0  0  0  0  0  0  0  0  0  0
    5.6838    0.1227    2.2224 H   0  0  0  0  0  0  0  0  0  0  0  0
    7.6815   -0.1939    3.6042 H   0  0  0  0  0  0  0  0  0  0  0  0
    7.6477    3.9742    4.6655 H   0  0  0  0  0  0  0  0  0  0  0  0
    5.6499    4.3193    3.2722 H   0  0  0  0  0  0  0  0  0  0  0  0
    4.9430    1.0722    0.2214 H   0  0  0  0  0  0  0  0  0  0  0  0
    3.6431    2.1714   -0.2715 H   0  0  0  0  0  0  0  0  0  0  0  0
  1  2  2  0  0  0  0
  2  3  1  0  0  0  0
  2 14  1  0  0  0  0
  3  4  1  0  0  0  0
  3 26  1  0  0  0  0
  3 27  1  0  0  0  0
  4  5  1  0  0  0  0
  4 13  2  0  0  0  0
  5  6  2  0  0  0  0
  5 28  1  0  0  0  0
  6  7  1  0  0  0  0
  7  8  2  0  0  0  0
  7 29  1  0  0  0  0
  8  9  1  0  0  0  0
  8 13  1  0  0  0  0
  9 10  2  0  0  0  0
  9 30  1  0  0  0  0
 10 11  1  0  0  0  0
 10 31  1  0  0  0  0
 11 12  2  0  0  0  0
 11 32  1  0  0  0  0
 12 13  1  0  0  0  0
 12 33  1  0  0  0  0
 14 15  1  0  0  0  0
 14 25  1  0  0  0  0
 15 16  1  0  0  0  0
 15 34  1  0  0  0  0
 15 35  1  0  0  0  0
 16 17  1  0  0  0  0
 16 36  1  0  0  0  0
 16 37  1  0  0  0  0
 17 18  1  0  0  0  0
 17 25  1  0  0  0  0
 17 38  1  6  0  0  0
 18 19  1  0  0  0  0
 18 24  2  0  0  0  0
 19 20  2  0  0  0  0
 19 39  1  0  0  0  0
 20 21  1  0  0  0  0
 20 40  1  0  0  0  0
 21 22  1  0  0  0  0
 21 23  2  0  0  0  0
 23 24  1  0  0  0  0
 23 41  1  0  0  0  0
 24 42  1  0  0  0  0
 25 43  1  0  0  0  0
 25 44  1  0  0  0  0
M  END
$$$$
