
 OpenBabel07202414203D

 34 35  0  0  0  0  0  0  0  0999 V2000
   -0.6456   -6.0272   -1.8501 C   0  0  0  0  0  0  0  0  0  0  0  0
   -1.0537   -6.9791   -0.9158 C   0  0  0  0  0  0  0  0  0  0  0  0
   -1.7884   -6.5798    0.1976 C   0  0  0  0  0  0  0  0  0  0  0  0
   -2.1147   -5.2443    0.4076 C   0  0  0  0  0  0  0  0  0  0  0  0
   -1.6960   -4.2926   -0.5253 C   0  0  0  0  0  0  0  0  0  0  0  0
   -0.9678   -4.6797   -1.6589 C   0  0  0  0  0  0  0  0  0  0  0  0
   -1.9390   -2.5646   -0.1631 S   0  0  0  0  0  0  0  0  0  0  0  0
   -1.3333   -2.3411    1.1334 O   0  0  0  0  0  0  0  0  0  0  0  0
   -1.5251   -1.8153   -1.3317 O   0  0  0  0  0  0  0  0  0  0  0  0
   -3.6298   -2.4246   -0.0072 N   0  0  0  0  0  0  0  0  0  0  0  0
   -4.3759   -1.8971   -1.1853 C   0  0  0  0  0  0  0  0  0  0  0  0
   -4.2086   -0.3693   -1.3278 C   0  0  0  0  0  0  0  0  0  0  0  0
   -4.3541    0.4005   -0.0801 N   0  0  0  0  0  0  0  0  0  0  0  0
   -3.9289   -0.2376    1.1753 C   0  0  0  0  0  0  0  0  0  0  0  0
   -4.1263   -1.7557    1.2338 C   0  0  0  0  0  0  0  0  0  0  0  0
   -4.3474    1.8026   -0.0583 C   0  0  0  0  0  0  0  0  0  0  0  0
   -4.3830    2.4283    1.0059 O   0  0  0  0  0  0  0  0  0  0  0  0
   -4.2411    2.5589   -1.3725 C   0  0  0  0  0  0  0  0  0  0  0  0
   -5.8519    2.8142   -2.0572 Cl  0  0  0  0  0  0  0  0  0  0  0  0
   -2.1649   -7.4990    1.0968 F   0  0  0  0  0  0  0  0  0  0  0  0
   -0.0551   -6.3311   -2.7116 H   0  0  0  0  0  0  0  0  0  0  0  0
   -0.7918   -8.0262   -1.0397 H   0  0  0  0  0  0  0  0  0  0  0  0
   -2.6543   -4.9590    1.3043 H   0  0  0  0  0  0  0  0  0  0  0  0
   -0.6126   -3.9400   -2.3733 H   0  0  0  0  0  0  0  0  0  0  0  0
   -5.4383   -2.1341   -1.0400 H   0  0  0  0  0  0  0  0  0  0  0  0
   -4.0698   -2.4136   -2.1003 H   0  0  0  0  0  0  0  0  0  0  0  0
   -4.9531   -0.0034   -2.0433 H   0  0  0  0  0  0  0  0  0  0  0  0
   -3.2264   -0.1279   -1.7414 H   0  0  0  0  0  0  0  0  0  0  0  0
   -4.4703    0.2232    2.0109 H   0  0  0  0  0  0  0  0  0  0  0  0
   -2.8691    0.0100    1.3083 H   0  0  0  0  0  0  0  0  0  0  0  0
   -5.1950   -1.9839    1.3345 H   0  0  0  0  0  0  0  0  0  0  0  0
   -3.6464   -2.1794    2.1224 H   0  0  0  0  0  0  0  0  0  0  0  0
   -3.6081    2.0435   -2.0977 H   0  0  0  0  0  0  0  0  0  0  0  0
   -3.7823    3.5348   -1.1804 H   0  0  0  0  0  0  0  0  0  0  0  0
  1  2  1  0  0  0  0
  1  6  2  0  0  0  0
  1 21  1  0  0  0  0
  2  3  2  0  0  0  0
  2 22  1  0  0  0  0
  3  4  1  0  0  0  0
  3 20  1  0  0  0  0
  4  5  2  0  0  0  0
  4 23  1  0  0  0  0
  5  6  1  0  0  0  0
  5  7  1  0  0  0  0
  6 24  1  0  0  0  0
  7  8  2  0  0  0  0
  7  9  2  0  0  0  0
  7 10  1  0  0  0  0
 10 11  1  0  0  0  0
 10 15  1  0  0  0  0
 11 12  1  0  0  0  0
 11 25  1  0  0  0  0
 11 26  1  0  0  0  0
 12 13  1  0  0  0  0
 12 27  1  0  0  0  0
 12 28  1  0  0  0  0
 13 14  1  0  0  0  0
 13 16  1  0  0  0  0
 14 15  1  0  0  0  0
 14 29  1  0  0  0  0
 14 30  1  0  0  0  0
 15 31  1  0  0  0  0
 15 32  1  0  0  0  0
 16 17  2  0  0  0  0
 16 18  1  0  0  0  0
 18 19  1  0  0  0  0
 18 33  1  0  0  0  0
 18 34  1  0  0  0  0
M  END
$$$$
