
 OpenBabel07202414143D

 42 45  0  0  1  0  0  0  0  0999 V2000
    1.1897    0.0023    0.4557 C   0  0  0  0  0  0  0  0  0  0  0  0
    2.3909   -0.2445   -0.2568 O   0  0  0  0  0  0  0  0  0  0  0  0
    2.8533    0.7928   -1.1177 C   0  0  3  0  0  0  0  0  0  0  0  0
    4.2016    0.2685   -1.6494 C   0  0  0  0  0  0  0  0  0  0  0  0
    5.2542    0.0426   -0.7353 C   0  0  0  0  0  0  0  0  0  0  0  0
    6.4901   -0.4623   -1.1499 C   0  0  0  0  0  0  0  0  0  0  0  0
    6.7039   -0.7583   -2.4925 C   0  0  0  0  0  0  0  0  0  0  0  0
    5.6798   -0.5488   -3.4091 C   0  0  0  0  0  0  0  0  0  0  0  0
    5.9329   -0.9191   -5.0719 Cl  0  0  0  0  0  0  0  0  0  0  0  0
    4.4415   -0.0444   -2.9984 C   0  0  0  0  0  0  0  0  0  0  0  0
    1.8117    1.1492   -2.2030 C   0  0  0  0  0  0  0  0  0  0  0  0
    2.2105    2.5439   -2.6470 C   0  0  0  0  0  0  0  0  0  0  0  0
    2.6532    3.1601   -1.4237 N   0  0  0  0  0  0  0  0  0  0  0  0
    2.8697    4.5532   -1.3127 C   0  0  0  0  0  0  0  0  0  0  0  0
    3.5351    5.2253   -2.3431 C   0  0  0  0  0  0  0  0  0  0  0  0
    3.7720    6.5540   -2.3743 N   0  0  0  0  0  0  0  0  0  0  0  0
    3.3108    7.2618   -1.3215 C   0  0  0  0  0  0  0  0  0  0  0  0
    2.6171    6.7189   -0.2374 C   0  0  0  0  0  0  0  0  0  0  0  0
    2.1332    7.5365    0.8004 C   0  0  0  0  0  0  0  0  0  0  0  0
    1.4241    6.9889    1.8672 C   0  0  0  0  0  0  0  0  0  0  0  0
    1.1825    5.6232    1.9032 C   0  0  0  0  0  0  0  0  0  0  0  0
    1.6468    4.8058    0.8701 C   0  0  0  0  0  0  0  0  0  0  0  0
    2.3911    5.3223   -0.2192 C   0  0  0  0  0  0  0  0  0  0  0  0
    3.0786    2.2089   -0.4812 C   0  0  0  0  0  0  0  0  0  0  0  0
    3.5599    2.4213    0.6207 O   0  0  0  0  0  0  0  0  0  0  0  0
    1.1372   -0.7040    1.2889 H   0  0  0  0  0  0  0  0  0  0  0  0
    0.3285   -0.1907   -0.1900 H   0  0  0  0  0  0  0  0  0  0  0  0
    1.1405    1.0165    0.8600 H   0  0  0  0  0  0  0  0  0  0  0  0
    5.1070    0.2502    0.3257 H   0  0  0  0  0  0  0  0  0  0  0  0
    7.2791   -0.6319   -0.4206 H   0  0  0  0  0  0  0  0  0  0  0  0
    7.6623   -1.1558   -2.8137 H   0  0  0  0  0  0  0  0  0  0  0  0
    3.6776    0.0845   -3.7574 H   0  0  0  0  0  0  0  0  0  0  0  0
    0.8038    1.2075   -1.7743 H   0  0  0  0  0  0  0  0  0  0  0  0
    1.7347    0.4321   -3.0235 H   0  0  0  0  0  0  0  0  0  0  0  0
    1.3512    3.0875   -3.0545 H   0  0  0  0  0  0  0  0  0  0  0  0
    3.0216    2.5287   -3.3803 H   0  0  0  0  0  0  0  0  0  0  0  0
    3.9533    4.6882   -3.1895 H   0  0  0  0  0  0  0  0  0  0  0  0
    3.5149    8.3283   -1.3794 H   0  0  0  0  0  0  0  0  0  0  0  0
    2.3007    8.6112    0.7790 H   0  0  0  0  0  0  0  0  0  0  0  0
    1.0595    7.6279    2.6670 H   0  0  0  0  0  0  0  0  0  0  0  0
    0.6351    5.1846    2.7334 H   0  0  0  0  0  0  0  0  0  0  0  0
    1.4210    3.7452    0.9322 H   0  0  0  0  0  0  0  0  0  0  0  0
  1  2  1  0  0  0  0
  1 26  1  0  0  0  0
  1 27  1  0  0  0  0
  1 28  1  0  0  0  0
  2  3  1  0  0  0  0
  3  4  1  0  0  0  0
  3 11  1  0  0  0  0
  3 24  1  0  0  0  0
  4  5  1  0  0  0  0
  4 10  2  0  0  0  0
  5  6  2  0  0  0  0
  5 29  1  0  0  0  0
  6  7  1  0  0  0  0
  6 30  1  0  0  0  0
  7  8  2  0  0  0  0
  7 31  1  0  0  0  0
  8  9  1  0  0  0  0
  8 10  1  0  0  0  0
 10 32  1  0  0  0  0
 11 12  1  0  0  0  0
 11 33  1  0  0  0  0
 11 34  1  0  0  0  0
 12 13  1  0  0  0  0
 12 35  1  0  0  0  0
 12 36  1  0  0  0  0
 13 14  1  0  0  0  0
 13 24  1  0  0  0  0
 14 15  1  0  0  0  0
 14 23  2  0  0  0  0
 15 16  2  0  0  0  0
 15 37  1  0  0  0  0
 16 17  1  0  0  0  0
 17 18  2  0  0  0  0
 17 38  1  0  0  0  0
 18 19  1  0  0  0  0
 18 23  1  0  0  0  0
 19 20  2  0  0  0  0
 19 39  1  0  0  0  0
 20 21  1  0  0  0  0
 20 40  1  0  0  0  0
 21 22  2  0  0  0  0
 21 41  1  0  0  0  0
 22 23  1  0  0  0  0
 22 42  1  0  0  0  0
 24 25  2  0  0  0  0
M  END
$$$$
