
 OpenBabel07202414123D

 56 59  0  0  1  0  0  0  0  0999 V2000
    3.6857    0.1218   -0.7924 C   0  0  0  0  0  0  0  0  0  0  0  0
    2.3065    0.1358   -0.1743 C   0  0  0  0  0  0  0  0  0  0  0  0
    2.2732    0.1452    1.3448 C   0  0  0  0  0  0  0  0  0  0  0  0
    2.4485    1.3204    2.0723 C   0  0  0  0  0  0  0  0  0  0  0  0
    2.4317    1.3262    3.4786 C   0  0  0  0  0  0  0  0  0  0  0  0
    2.2198    0.1648    4.2467 C   0  0  0  0  0  0  0  0  0  0  0  0
    2.2667    0.1600    5.7202 N   0  0  0  0  0  0  0  0  0  0  0  0
    2.4662   -1.1699    6.4175 C   0  0  3  0  0  0  0  0  0  0  0  0
    3.8659   -1.2201    7.1415 C   0  0  0  0  0  0  0  0  0  0  0  0
    4.0566   -1.9701    8.0980 O   0  0  0  0  0  0  0  0  0  0  0  0
    4.8734   -0.4575    6.5780 N   0  0  0  0  0  0  0  0  0  0  0  0
    6.2060   -0.3973    7.0465 C   0  0  0  0  0  0  0  0  0  0  0  0
    6.7570   -1.3254    7.9403 C   0  0  0  0  0  0  0  0  0  0  0  0
    8.0741   -1.1756    8.4050 C   0  0  0  0  0  0  0  0  0  0  0  0
    8.8472   -0.1131    7.9615 C   0  0  0  0  0  0  0  0  0  0  0  0
   10.6061    0.1052    8.6112 Br  0  0  0  0  0  0  0  0  0  0  0  0
    8.3272    0.7909    7.0381 C   0  0  0  0  0  0  0  0  0  0  0  0
    7.0134    0.6407    6.5756 C   0  0  0  0  0  0  0  0  0  0  0  0
    1.3296   -1.6604    7.3317 C   0  0  0  0  0  0  0  0  0  0  0  0
    0.1545   -0.9529    7.5927 C   0  0  0  0  0  0  0  0  0  0  0  0
   -0.6378   -1.3031    8.6884 C   0  0  0  0  0  0  0  0  0  0  0  0
   -0.2848   -2.4088    9.4429 C   0  0  0  0  0  0  0  0  0  0  0  0
    0.7275   -3.2260    9.1122 N   0  0  0  0  0  0  0  0  0  0  0  0
    1.4954   -2.8450    8.0648 C   0  0  0  0  0  0  0  0  0  0  0  0
    2.1763    1.3812    6.4275 C   0  0  0  0  0  0  0  0  0  0  0  0
    2.0055    2.4807    5.9005 O   0  0  0  0  0  0  0  0  0  0  0  0
    2.2917    1.3832    7.9194 C   0  0  0  0  0  0  0  0  0  0  0  0
    2.1546    2.5400    8.5810 C   0  0  0  0  0  0  0  0  0  0  0  0
    1.9851   -0.9996    3.5016 C   0  0  0  0  0  0  0  0  0  0  0  0
    2.0511   -1.0148    2.0939 C   0  0  0  0  0  0  0  0  0  0  0  0
    1.1769   -0.5693   -0.9075 C   0  0  0  0  0  0  0  0  0  0  0  0
    1.2399    0.9260   -0.9145 C   0  0  0  0  0  0  0  0  0  0  0  0
    4.3597   -0.5430   -0.2426 H   0  0  0  0  0  0  0  0  0  0  0  0
    4.1167    1.1293   -0.7834 H   0  0  0  0  0  0  0  0  0  0  0  0
    3.6609   -0.2193   -1.8333 H   0  0  0  0  0  0  0  0  0  0  0  0
    2.6086    2.2598    1.5448 H   0  0  0  0  0  0  0  0  0  0  0  0
    2.6088    2.3027    3.9168 H   0  0  0  0  0  0  0  0  0  0  0  0
    2.5852   -1.9572    5.6705 H   0  0  0  0  0  0  0  0  0  0  0  0
    4.5996    0.2197    5.8724 H   0  0  0  0  0  0  0  0  0  0  0  0
    6.2139   -2.1795    8.3103 H   0  0  0  0  0  0  0  0  0  0  0  0
    8.4701   -1.9063    9.1083 H   0  0  0  0  0  0  0  0  0  0  0  0
    8.9302    1.6225    6.6811 H   0  0  0  0  0  0  0  0  0  0  0  0
    6.6272    1.3704    5.8677 H   0  0  0  0  0  0  0  0  0  0  0  0
   -0.1290   -0.0836    7.0064 H   0  0  0  0  0  0  0  0  0  0  0  0
   -1.4925   -0.7017    8.9743 H   0  0  0  0  0  0  0  0  0  0  0  0
   -0.8128   -2.6684   10.3561 H   0  0  0  0  0  0  0  0  0  0  0  0
    2.3221   -3.5280    7.8743 H   0  0  0  0  0  0  0  0  0  0  0  0
    2.4556    0.4800    8.4873 H   0  0  0  0  0  0  0  0  0  0  0  0
    1.9757    3.4787    8.0609 H   0  0  0  0  0  0  0  0  0  0  0  0
    2.2058    2.5745    9.6646 H   0  0  0  0  0  0  0  0  0  0  0  0
    1.6947   -1.9394    3.9582 H   0  0  0  0  0  0  0  0  0  0  0  0
    1.9033   -1.9581    1.5710 H   0  0  0  0  0  0  0  0  0  0  0  0
    0.3807   -1.0276   -0.3302 H   0  0  0  0  0  0  0  0  0  0  0  0
    1.4016   -1.0959   -1.8274 H   0  0  0  0  0  0  0  0  0  0  0  0
    0.4972    1.4666   -0.3369 H   0  0  0  0  0  0  0  0  0  0  0  0
    1.5049    1.4158   -1.8450 H   0  0  0  0  0  0  0  0  0  0  0  0
  1  2  1  0  0  0  0
  1 33  1  0  0  0  0
  1 34  1  0  0  0  0
  1 35  1  0  0  0  0
  2  3  1  0  0  0  0
  2 31  1  0  0  0  0
  2 32  1  0  0  0  0
  3  4  1  0  0  0  0
  3 30  2  0  0  0  0
  4  5  2  0  0  0  0
  4 36  1  0  0  0  0
  5  6  1  0  0  0  0
  5 37  1  0  0  0  0
  6  7  1  0  0  0  0
  6 29  2  0  0  0  0
  7  8  1  0  0  0  0
  7 25  1  0  0  0  0
  8  9  1  0  0  0  0
  8 19  1  0  0  0  0
  8 38  1  0  0  0  0
  9 10  2  0  0  0  0
  9 11  1  0  0  0  0
 11 12  1  0  0  0  0
 11 39  1  0  0  0  0
 12 13  1  0  0  0  0
 12 18  2  0  0  0  0
 13 14  2  0  0  0  0
 13 40  1  0  0  0  0
 14 15  1  0  0  0  0
 14 41  1  0  0  0  0
 15 16  1  0  0  0  0
 15 17  2  0  0  0  0
 17 18  1  0  0  0  0
 17 42  1  0  0  0  0
 18 43  1  0  0  0  0
 19 20  1  0  0  0  0
 19 24  2  0  0  0  0
 20 21  2  0  0  0  0
 20 44  1  0  0  0  0
 21 22  1  0  0  0  0
 21 45  1  0  0  0  0
 22 23  2  0  0  0  0
 22 46  1  0  0  0  0
 23 24  1  0  0  0  0
 24 47  1  0  0  0  0
 25 26  2  0  0  0  0
 25 27  1  0  0  0  0
 27 28  2  0  0  0  0
 27 48  1  0  0  0  0
 28 49  1  0  0  0  0
 28 50  1  0  0  0  0
 29 30  1  0  0  0  0
 29 51  1  0  0  0  0
 30 52  1  0  0  0  0
 31 32  1  0  0  0  0
 31 53  1  0  0  0  0
 31 54  1  0  0  0  0
 32 55  1  0  0  0  0
 32 56  1  0  0  0  0
M  END
$$$$
