
 OpenBabel07202414143D

 54 58  0  0  1  0  0  0  0  0999 V2000
    7.8196   -1.5900    0.7020 C   0  0  0  0  0  0  0  0  0  0  0  0
    6.8751   -1.2286   -0.3258 N   0  0  0  0  0  0  0  0  0  0  0  0
    5.5645   -0.9352   -0.0359 C   0  0  0  0  0  0  0  0  0  0  0  0
    5.0992   -0.9914    1.1035 O   0  0  0  0  0  0  0  0  0  0  0  0
    4.7180   -0.4428   -1.2156 C   0  0  0  0  0  0  0  0  0  0  0  0
    5.1259   -0.9151   -2.5702 N   0  0  0  0  0  0  0  0  0  0  0  0
    4.9351   -2.3694   -2.7070 C   0  0  0  0  0  0  0  0  0  0  0  0
    3.4992   -2.8092   -2.9105 C   0  0  0  0  0  0  0  0  0  0  0  0
    3.1679   -4.1289   -2.5530 C   0  0  0  0  0  0  0  0  0  0  0  0
    1.8628   -4.5949   -2.6825 C   0  0  0  0  0  0  0  0  0  0  0  0
    0.8876   -3.7577   -3.2102 C   0  0  0  0  0  0  0  0  0  0  0  0
   -0.7406   -4.3066   -3.3067 Cl  0  0  0  0  0  0  0  0  0  0  0  0
    1.2051   -2.4593   -3.6159 C   0  0  0  0  0  0  0  0  0  0  0  0
    2.5106   -1.9541   -3.4575 C   0  0  0  0  0  0  0  0  0  0  0  0
    2.8237   -0.4635   -3.7072 C   0  0  2  0  0  0  0  0  0  0  0  0
    2.1821    0.3722   -2.5898 C   0  0  0  0  0  0  0  0  0  0  0  0
    1.1837    1.2895   -3.2187 C   0  0  0  0  0  0  0  0  0  0  0  0
    0.9872    0.8585   -4.5737 N   0  0  0  0  0  0  0  0  0  0  0  0
    0.1250    1.6854   -5.3893 C   0  0  0  0  0  0  0  0  0  0  0  0
    0.5118    2.0907   -6.6657 C   0  0  0  0  0  0  0  0  0  0  0  0
   -0.0284    3.1464   -7.3261 N   0  0  0  0  0  0  0  0  0  0  0  0
   -1.0347    3.8062   -6.7116 C   0  0  0  0  0  0  0  0  0  0  0  0
   -1.6253    3.4086   -5.5167 C   0  0  0  0  0  0  0  0  0  0  0  0
   -2.7470    4.0920   -4.9954 C   0  0  0  0  0  0  0  0  0  0  0  0
   -3.3626    3.6711   -3.8192 C   0  0  0  0  0  0  0  0  0  0  0  0
   -2.8860    2.5451   -3.1733 C   0  0  0  0  0  0  0  0  0  0  0  0
   -1.7904    1.8525   -3.7030 C   0  0  0  0  0  0  0  0  0  0  0  0
   -1.0714    2.2919   -4.8511 C   0  0  0  0  0  0  0  0  0  0  0  0
    2.1143    0.0945   -4.9888 C   0  0  0  0  0  0  0  0  0  0  0  0
    2.4542   -0.1614   -6.1427 O   0  0  0  0  0  0  0  0  0  0  0  0
    4.3707   -0.2536   -3.6931 C   0  0  0  0  0  0  0  0  0  0  0  0
    8.4468   -2.3998    0.3262 H   0  0  0  0  0  0  0  0  0  0  0  0
    7.3130   -1.9131    1.6165 H   0  0  0  0  0  0  0  0  0  0  0  0
    8.4411   -0.7180    0.9218 H   0  0  0  0  0  0  0  0  0  0  0  0
    7.1850   -1.0852   -1.2842 H   0  0  0  0  0  0  0  0  0  0  0  0
    4.7896    0.6504   -1.1795 H   0  0  0  0  0  0  0  0  0  0  0  0
    3.7001   -0.7580   -0.9717 H   0  0  0  0  0  0  0  0  0  0  0  0
    5.3526   -2.8871   -1.8349 H   0  0  0  0  0  0  0  0  0  0  0  0
    5.5245   -2.7180   -3.5645 H   0  0  0  0  0  0  0  0  0  0  0  0
    3.9257   -4.7926   -2.1386 H   0  0  0  0  0  0  0  0  0  0  0  0
    1.6146   -5.6014   -2.3565 H   0  0  0  0  0  0  0  0  0  0  0  0
    0.4120   -1.8345   -4.0195 H   0  0  0  0  0  0  0  0  0  0  0  0
    2.8899    1.0211   -2.0717 H   0  0  0  0  0  0  0  0  0  0  0  0
    1.6933   -0.2466   -1.8290 H   0  0  0  0  0  0  0  0  0  0  0  0
    1.5761    2.3137   -3.2470 H   0  0  0  0  0  0  0  0  0  0  0  0
    0.2917    1.2774   -2.6041 H   0  0  0  0  0  0  0  0  0  0  0  0
    1.3342    1.6280   -7.2017 H   0  0  0  0  0  0  0  0  0  0  0  0
   -1.3779    4.6955   -7.2355 H   0  0  0  0  0  0  0  0  0  0  0  0
   -3.1620    4.9519   -5.5182 H   0  0  0  0  0  0  0  0  0  0  0  0
   -4.2303    4.2007   -3.4305 H   0  0  0  0  0  0  0  0  0  0  0  0
   -3.3703    2.1871   -2.2675 H   0  0  0  0  0  0  0  0  0  0  0  0
   -1.5262    0.9181   -3.2136 H   0  0  0  0  0  0  0  0  0  0  0  0
    4.6048    0.8192   -3.6894 H   0  0  0  0  0  0  0  0  0  0  0  0
    4.7982   -0.6224   -4.6375 H   0  0  0  0  0  0  0  0  0  0  0  0
  1  2  1  0  0  0  0
  1 32  1  0  0  0  0
  1 33  1  0  0  0  0
  1 34  1  0  0  0  0
  2  3  1  0  0  0  0
  2 35  1  0  0  0  0
  3  4  2  0  0  0  0
  3  5  1  0  0  0  0
  5  6  1  0  0  0  0
  5 36  1  0  0  0  0
  5 37  1  0  0  0  0
  6  7  1  0  0  0  0
  6 31  1  0  0  0  0
  7  8  1  0  0  0  0
  7 38  1  0  0  0  0
  7 39  1  0  0  0  0
  8  9  1  0  0  0  0
  8 14  2  0  0  0  0
  9 10  2  0  0  0  0
  9 40  1  0  0  0  0
 10 11  1  0  0  0  0
 10 41  1  0  0  0  0
 11 12  1  0  0  0  0
 11 13  2  0  0  0  0
 13 14  1  0  0  0  0
 13 42  1  0  0  0  0
 15 14  1  1  0  0  0
 15 16  1  0  0  0  0
 15 29  1  0  0  0  0
 15 31  1  0  0  0  0
 16 17  1  0  0  0  0
 16 43  1  0  0  0  0
 16 44  1  0  0  0  0
 17 18  1  0  0  0  0
 17 45  1  0  0  0  0
 17 46  1  0  0  0  0
 18 19  1  0  0  0  0
 18 29  1  0  0  0  0
 19 20  1  0  0  0  0
 19 28  2  0  0  0  0
 20 21  2  0  0  0  0
 20 47  1  0  0  0  0
 21 22  1  0  0  0  0
 22 23  2  0  0  0  0
 22 48  1  0  0  0  0
 23 24  1  0  0  0  0
 23 28  1  0  0  0  0
 24 25  2  0  0  0  0
 24 49  1  0  0  0  0
 25 26  1  0  0  0  0
 25 50  1  0  0  0  0
 26 27  2  0  0  0  0
 26 51  1  0  0  0  0
 27 28  1  0  0  0  0
 27 52  1  0  0  0  0
 29 30  2  0  0  0  0
 31 53  1  0  0  0  0
 31 54  1  0  0  0  0
M  END
$$$$
