
 OpenBabel07202414123D

 59 62  0  0  1  0  0  0  0  0999 V2000
    1.1725   -0.0434    0.3408 C   0  0  0  0  0  0  0  0  0  0  0  0
    2.7145   -0.1774    0.3164 C   0  0  3  0  0  0  0  0  0  0  0  0
    3.2630    1.1253   -0.1396 N   0  0  0  0  0  0  0  0  0  0  0  0
    3.3258    2.3357    0.4924 C   0  0  0  0  0  0  0  0  0  0  0  0
    3.4129    3.3392   -0.2194 O   0  0  0  0  0  0  0  0  0  0  0  0
    3.3525    2.4448    2.0144 C   0  0  0  0  0  0  0  0  0  0  0  0
    2.0201    2.4765    2.5141 O   0  0  0  0  0  0  0  0  0  0  0  0
    1.8753    2.4740    3.8764 C   0  0  0  0  0  0  0  0  0  0  0  0
    2.8965    2.6537    4.8093 C   0  0  0  0  0  0  0  0  0  0  0  0
    2.6345    2.5266    6.1796 C   0  0  0  0  0  0  0  0  0  0  0  0
    1.3456    2.2247    6.6339 C   0  0  0  0  0  0  0  0  0  0  0  0
    1.1543    1.9741    8.0908 C   0  0  0  0  0  0  0  0  0  0  0  0
   -0.1128    2.0968    8.5954 N   0  0  0  0  0  0  0  0  0  0  0  0
    2.0860    1.6801    8.8262 O   0  0  0  0  0  0  0  0  0  0  0  0
    0.3132    2.0875    5.7019 C   0  0  0  0  0  0  0  0  0  0  0  0
    0.5776    2.2225    4.3298 C   0  0  0  0  0  0  0  0  0  0  0  0
    3.3807   -0.6242    1.6963 C   0  0  0  0  0  0  0  0  0  0  0  0
    4.5917   -0.7752    1.7979 O   0  0  0  0  0  0  0  0  0  0  0  0
    2.4895   -0.7475    2.7487 N   0  0  0  0  0  0  0  0  0  0  0  0
    2.7573   -0.9540    4.1269 C   0  0  0  0  0  0  0  0  0  0  0  0
    4.0371   -0.9179    4.6760 C   0  0  0  0  0  0  0  0  0  0  0  0
    4.2899   -0.9024    6.0055 N   0  0  0  0  0  0  0  0  0  0  0  0
    3.2233   -1.0059    6.8284 C   0  0  0  0  0  0  0  0  0  0  0  0
    1.9088   -1.1918    6.3996 C   0  0  0  0  0  0  0  0  0  0  0  0
    0.8610   -1.4229    7.3128 C   0  0  0  0  0  0  0  0  0  0  0  0
   -0.4507   -1.5854    6.8726 C   0  0  0  0  0  0  0  0  0  0  0  0
   -0.7396   -1.4696    5.5218 C   0  0  0  0  0  0  0  0  0  0  0  0
    0.2921   -1.2425    4.6083 C   0  0  0  0  0  0  0  0  0  0  0  0
    1.6514   -1.1275    5.0131 C   0  0  0  0  0  0  0  0  0  0  0  0
    3.1064   -1.2764   -0.7190 C   0  0  0  0  0  0  0  0  0  0  0  0
    4.2498   -1.1490   -1.5330 C   0  0  0  0  0  0  0  0  0  0  0  0
    4.6235   -2.1609   -2.4261 C   0  0  0  0  0  0  0  0  0  0  0  0
    3.8779   -3.3362   -2.5133 C   0  0  0  0  0  0  0  0  0  0  0  0
    4.4030   -4.5504   -3.6225 Cl  0  0  0  0  0  0  0  0  0  0  0  0
    2.7549   -3.4973   -1.7011 C   0  0  0  0  0  0  0  0  0  0  0  0
    1.7888   -4.9304   -1.7235 Cl  0  0  0  0  0  0  0  0  0  0  0  0
    2.3782   -2.4792   -0.8133 C   0  0  0  0  0  0  0  0  0  0  0  0
    0.8462    0.8357    0.9050 H   0  0  0  0  0  0  0  0  0  0  0  0
    0.6770   -0.9104    0.7937 H   0  0  0  0  0  0  0  0  0  0  0  0
    0.7637    0.0609   -0.6718 H   0  0  0  0  0  0  0  0  0  0  0  0
    3.1936    1.2835   -1.1382 H   0  0  0  0  0  0  0  0  0  0  0  0
    3.8865    3.3695    2.2656 H   0  0  0  0  0  0  0  0  0  0  0  0
    3.9233    1.6181    2.4355 H   0  0  0  0  0  0  0  0  0  0  0  0
    3.9188    2.8689    4.5135 H   0  0  0  0  0  0  0  0  0  0  0  0
    3.4541    2.6334    6.8890 H   0  0  0  0  0  0  0  0  0  0  0  0
   -0.8672    2.5259    8.0829 H   0  0  0  0  0  0  0  0  0  0  0  0
   -0.2044    2.0149    9.6000 H   0  0  0  0  0  0  0  0  0  0  0  0
   -0.6894    1.7979    6.0087 H   0  0  0  0  0  0  0  0  0  0  0  0
   -0.2243    2.0701    3.6122 H   0  0  0  0  0  0  0  0  0  0  0  0
    1.5347   -0.4945    2.5715 H   0  0  0  0  0  0  0  0  0  0  0  0
    4.9332   -0.8521    4.0691 H   0  0  0  0  0  0  0  0  0  0  0  0
    3.4595   -0.9172    7.8874 H   0  0  0  0  0  0  0  0  0  0  0  0
    1.0705   -1.4867    8.3794 H   0  0  0  0  0  0  0  0  0  0  0  0
   -1.2430   -1.7985    7.5846 H   0  0  0  0  0  0  0  0  0  0  0  0
   -1.7641   -1.5637    5.1704 H   0  0  0  0  0  0  0  0  0  0  0  0
    0.0014   -1.1645    3.5656 H   0  0  0  0  0  0  0  0  0  0  0  0
    4.8901   -0.2691   -1.4685 H   0  0  0  0  0  0  0  0  0  0  0  0
    5.5133   -2.0297   -3.0389 H   0  0  0  0  0  0  0  0  0  0  0  0
    1.5121   -2.6562   -0.1809 H   0  0  0  0  0  0  0  0  0  0  0  0
  1  2  1  0  0  0  0
  1 38  1  0  0  0  0
  1 39  1  0  0  0  0
  1 40  1  0  0  0  0
  2  3  1  0  0  0  0
  2 17  1  0  0  0  0
  2 30  1  0  0  0  0
  3  4  1  0  0  0  0
  3 41  1  0  0  0  0
  4  5  2  0  0  0  0
  4  6  1  0  0  0  0
  6  7  1  0  0  0  0
  6 42  1  0  0  0  0
  6 43  1  0  0  0  0
  7  8  1  0  0  0  0
  8  9  1  0  0  0  0
  8 16  2  0  0  0  0
  9 10  2  0  0  0  0
  9 44  1  0  0  0  0
 10 11  1  0  0  0  0
 10 45  1  0  0  0  0
 11 12  1  0  0  0  0
 11 15  2  0  0  0  0
 12 13  1  0  0  0  0
 12 14  2  0  0  0  0
 13 46  1  0  0  0  0
 13 47  1  0  0  0  0
 15 16  1  0  0  0  0
 15 48  1  0  0  0  0
 16 49  1  0  0  0  0
 17 18  2  0  0  0  0
 17 19  1  0  0  0  0
 19 20  1  0  0  0  0
 19 50  1  0  0  0  0
 20 21  1  0  0  0  0
 20 29  2  0  0  0  0
 21 22  2  0  0  0  0
 21 51  1  0  0  0  0
 22 23  1  0  0  0  0
 23 24  2  0  0  0  0
 23 52  1  0  0  0  0
 24 25  1  0  0  0  0
 24 29  1  0  0  0  0
 25 26  2  0  0  0  0
 25 53  1  0  0  0  0
 26 27  1  0  0  0  0
 26 54  1  0  0  0  0
 27 28  2  0  0  0  0
 27 55  1  0  0  0  0
 28 29  1  0  0  0  0
 28 56  1  0  0  0  0
 30 31  1  0  0  0  0
 30 37  2  0  0  0  0
 31 32  2  0  0  0  0
 31 57  1  0  0  0  0
 32 33  1  0  0  0  0
 32 58  1  0  0  0  0
 33 34  1  0  0  0  0
 33 35  2  0  0  0  0
 35 36  1  0  0  0  0
 35 37  1  0  0  0  0
 37 59  1  0  0  0  0
M  END
$$$$
