
 OpenBabel07202414143D

 53 57  0  0  1  0  0  0  0  0999 V2000
    6.4413    2.2814    1.3610 C   0  0  0  0  0  0  0  0  0  0  0  0
    6.0615    1.6369    0.1335 N   0  0  0  0  0  0  0  0  0  0  0  0
    5.0371    0.7248    0.0683 C   0  0  0  0  0  0  0  0  0  0  0  0
    4.3974    0.3645    1.0544 O   0  0  0  0  0  0  0  0  0  0  0  0
    4.7363    0.1631   -1.3295 C   0  0  0  0  0  0  0  0  0  0  0  0
    5.5123    0.8049   -2.3998 N   0  0  0  0  0  0  0  0  0  0  0  0
    4.9226    1.9584   -3.0485 C   0  0  0  0  0  0  0  0  0  0  0  0
    5.9025    2.9028   -3.7604 C   0  0  3  0  0  0  0  0  0  0  0  0
    5.1019    3.6680   -4.8209 C   0  0  0  0  0  0  0  0  0  0  0  0
    5.4396    5.1247   -4.6297 C   0  0  0  0  0  0  0  0  0  0  0  0
    6.3245    5.2391   -3.5115 N   0  0  0  0  0  0  0  0  0  0  0  0
    6.9868    6.4691   -3.1475 C   0  0  0  0  0  0  0  0  0  0  0  0
    7.9986    6.4280   -2.1757 C   0  0  0  0  0  0  0  0  0  0  0  0
    8.6685    7.4962   -1.6860 N   0  0  0  0  0  0  0  0  0  0  0  0
    8.3667    8.6891   -2.2208 C   0  0  0  0  0  0  0  0  0  0  0  0
    7.4739    8.8788   -3.2692 C   0  0  0  0  0  0  0  0  0  0  0  0
    7.3470   10.1674   -3.8282 C   0  0  0  0  0  0  0  0  0  0  0  0
    6.4994   10.3971   -4.9017 C   0  0  0  0  0  0  0  0  0  0  0  0
    6.4171   11.9481   -5.6349 Cl  0  0  0  0  0  0  0  0  0  0  0  0
    5.7283    9.3646   -5.3906 C   0  0  0  0  0  0  0  0  0  0  0  0
    5.8316    8.0924   -4.8151 C   0  0  0  0  0  0  0  0  0  0  0  0
    6.7368    7.7639   -3.7567 C   0  0  0  0  0  0  0  0  0  0  0  0
    6.4186    4.0036   -2.8260 C   0  0  0  0  0  0  0  0  0  0  0  0
    6.9017    3.7807   -1.7287 O   0  0  0  0  0  0  0  0  0  0  0  0
    7.1007    2.1685   -4.3476 C   0  0  0  0  0  0  0  0  0  0  0  0
    8.0236    2.8431   -5.1780 C   0  0  0  0  0  0  0  0  0  0  0  0
    9.1613    2.1997   -5.6632 C   0  0  0  0  0  0  0  0  0  0  0  0
   10.2895    3.0792   -6.6166 Cl  0  0  0  0  0  0  0  0  0  0  0  0
    9.3936    0.8663   -5.3554 C   0  0  0  0  0  0  0  0  0  0  0  0
    8.4992    0.1853   -4.5282 C   0  0  0  0  0  0  0  0  0  0  0  0
    7.3696    0.8342   -4.0010 C   0  0  0  0  0  0  0  0  0  0  0  0
    6.5517    0.1040   -2.9925 C   0  0  0  0  0  0  0  0  0  0  0  0
    6.8415   -1.0477   -2.6938 O   0  0  0  0  0  0  0  0  0  0  0  0
    7.2968    2.9314    1.1630 H   0  0  0  0  0  0  0  0  0  0  0  0
    6.7086    1.5200    2.0965 H   0  0  0  0  0  0  0  0  0  0  0  0
    5.5995    2.8713    1.7308 H   0  0  0  0  0  0  0  0  0  0  0  0
    6.4868    1.9657   -0.7280 H   0  0  0  0  0  0  0  0  0  0  0  0
    3.6702    0.3058   -1.5400 H   0  0  0  0  0  0  0  0  0  0  0  0
    4.9374   -0.9125   -1.2983 H   0  0  0  0  0  0  0  0  0  0  0  0
    4.3235    2.5110   -2.3142 H   0  0  0  0  0  0  0  0  0  0  0  0
    4.2238    1.5291   -3.7808 H   0  0  0  0  0  0  0  0  0  0  0  0
    4.0178    3.5478   -4.6967 H   0  0  0  0  0  0  0  0  0  0  0  0
    5.3176    3.3440   -5.8454 H   0  0  0  0  0  0  0  0  0  0  0  0
    4.5171    5.6634   -4.3872 H   0  0  0  0  0  0  0  0  0  0  0  0
    5.9161    5.5018   -5.5379 H   0  0  0  0  0  0  0  0  0  0  0  0
    8.3627    5.4959   -1.7534 H   0  0  0  0  0  0  0  0  0  0  0  0
    8.8989    9.5246   -1.7713 H   0  0  0  0  0  0  0  0  0  0  0  0
    7.9397   10.9938   -3.4416 H   0  0  0  0  0  0  0  0  0  0  0  0
    5.0466    9.5235   -6.2230 H   0  0  0  0  0  0  0  0  0  0  0  0
    5.1661    7.3710   -5.2619 H   0  0  0  0  0  0  0  0  0  0  0  0
    7.8886    3.8946   -5.4233 H   0  0  0  0  0  0  0  0  0  0  0  0
   10.2816    0.3608   -5.7271 H   0  0  0  0  0  0  0  0  0  0  0  0
    8.7082   -0.8516   -4.2638 H   0  0  0  0  0  0  0  0  0  0  0  0
  1  2  1  0  0  0  0
  1 34  1  0  0  0  0
  1 35  1  0  0  0  0
  1 36  1  0  0  0  0
  2  3  1  0  0  0  0
  2 37  1  0  0  0  0
  3  4  2  0  0  0  0
  3  5  1  0  0  0  0
  5  6  1  0  0  0  0
  5 38  1  0  0  0  0
  5 39  1  0  0  0  0
  6  7  1  0  0  0  0
  6 32  1  0  0  0  0
  7  8  1  0  0  0  0
  7 40  1  0  0  0  0
  7 41  1  0  0  0  0
  8  9  1  0  0  0  0
  8 23  1  0  0  0  0
  8 25  1  0  0  0  0
  9 10  1  0  0  0  0
  9 42  1  0  0  0  0
  9 43  1  0  0  0  0
 10 11  1  0  0  0  0
 10 44  1  0  0  0  0
 10 45  1  0  0  0  0
 11 12  1  0  0  0  0
 11 23  1  0  0  0  0
 12 13  1  0  0  0  0
 12 22  2  0  0  0  0
 13 14  2  0  0  0  0
 13 46  1  0  0  0  0
 14 15  1  0  0  0  0
 15 16  2  0  0  0  0
 15 47  1  0  0  0  0
 16 17  1  0  0  0  0
 16 22  1  0  0  0  0
 17 18  2  0  0  0  0
 17 48  1  0  0  0  0
 18 19  1  0  0  0  0
 18 20  1  0  0  0  0
 20 21  2  0  0  0  0
 20 49  1  0  0  0  0
 21 22  1  0  0  0  0
 21 50  1  0  0  0  0
 23 24  2  0  0  0  0
 25 26  1  0  0  0  0
 25 31  2  0  0  0  0
 26 27  2  0  0  0  0
 26 51  1  0  0  0  0
 27 28  1  0  0  0  0
 27 29  1  0  0  0  0
 29 30  2  0  0  0  0
 29 52  1  0  0  0  0
 30 31  1  0  0  0  0
 30 53  1  0  0  0  0
 31 32  1  0  0  0  0
 32 33  2  0  0  0  0
M  END
$$$$
