
 OpenBabel07202414133D

 48 51  0  0  0  0  0  0  0  0999 V2000
    2.5328    5.6194    0.2296 C   0  0  0  0  0  0  0  0  0  0  0  0
    3.5025    4.7624   -0.5300 C   0  0  0  0  0  0  0  0  0  0  0  0
    3.4863    3.3596   -0.4642 C   0  0  0  0  0  0  0  0  0  0  0  0
    2.5494    2.6097    0.2728 N   0  0  0  0  0  0  0  0  0  0  0  0
    1.1366    2.6201    0.2353 C   0  0  0  0  0  0  0  0  0  0  0  0
    0.4426    1.9928    1.2756 C   0  0  0  0  0  0  0  0  0  0  0  0
   -0.9537    1.9874    1.2975 C   0  0  0  0  0  0  0  0  0  0  0  0
   -1.7816    1.2039    2.5855 Cl  0  0  0  0  0  0  0  0  0  0  0  0
   -1.6846    2.6067    0.2849 C   0  0  0  0  0  0  0  0  0  0  0  0
   -1.0112    3.2588   -0.7556 C   0  0  0  0  0  0  0  0  0  0  0  0
   -1.7822    3.9410   -1.8625 C   0  0  0  0  0  0  0  0  0  0  0  0
   -1.4610    3.4323   -3.2730 C   0  0  0  0  0  0  0  0  0  0  0  0
   -0.4948    2.7208   -3.5217 O   0  0  0  0  0  0  0  0  0  0  0  0
   -2.3260    3.9429   -4.2100 N   0  0  0  0  0  0  0  0  0  0  0  0
   -2.3163    3.6671   -5.6002 C   0  0  0  0  0  0  0  0  0  0  0  0
   -2.4923    4.7784   -6.4311 C   0  0  0  0  0  0  0  0  0  0  0  0
   -2.7923    4.7282   -7.7412 N   0  0  0  0  0  0  0  0  0  0  0  0
   -2.9464    3.4913   -8.2559 C   0  0  0  0  0  0  0  0  0  0  0  0
   -2.7304    2.3005   -7.5567 C   0  0  0  0  0  0  0  0  0  0  0  0
   -2.9186    1.0633   -8.1982 C   0  0  0  0  0  0  0  0  0  0  0  0
   -2.6394   -0.1305   -7.5415 C   0  0  0  0  0  0  0  0  0  0  0  0
   -2.1843   -0.0954   -6.2319 C   0  0  0  0  0  0  0  0  0  0  0  0
   -2.0713    1.1278   -5.5601 C   0  0  0  0  0  0  0  0  0  0  0  0
   -2.3438    2.3672   -6.1931 C   0  0  0  0  0  0  0  0  0  0  0  0
    0.3926    3.2797   -0.7544 C   0  0  0  0  0  0  0  0  0  0  0  0
    4.4628    2.6792   -1.2043 C   0  0  0  0  0  0  0  0  0  0  0  0
    5.4115    3.3833   -1.9448 C   0  0  0  0  0  0  0  0  0  0  0  0
    5.3518    4.7641   -1.9348 C   0  0  0  0  0  0  0  0  0  0  0  0
    6.6517    5.7498   -2.9013 Br  0  0  0  0  0  0  0  0  0  0  0  0
    4.4181    5.4615   -1.2568 N   0  0  0  0  0  0  0  0  0  0  0  0
    2.1038    5.1054    1.0934 H   0  0  0  0  0  0  0  0  0  0  0  0
    1.7276    5.9463   -0.4351 H   0  0  0  0  0  0  0  0  0  0  0  0
    3.0438    6.5082    0.6142 H   0  0  0  0  0  0  0  0  0  0  0  0
    2.9066    1.7024    0.5633 H   0  0  0  0  0  0  0  0  0  0  0  0
    0.9906    1.5165    2.0840 H   0  0  0  0  0  0  0  0  0  0  0  0
   -2.7675    2.5877    0.3156 H   0  0  0  0  0  0  0  0  0  0  0  0
   -1.5787    5.0160   -1.8230 H   0  0  0  0  0  0  0  0  0  0  0  0
   -2.8572    3.8086   -1.6968 H   0  0  0  0  0  0  0  0  0  0  0  0
   -2.7842    4.8120   -3.9493 H   0  0  0  0  0  0  0  0  0  0  0  0
   -2.3757    5.7862   -6.0413 H   0  0  0  0  0  0  0  0  0  0  0  0
   -3.2591    3.4827   -9.2941 H   0  0  0  0  0  0  0  0  0  0  0  0
   -3.2815    1.0229   -9.2239 H   0  0  0  0  0  0  0  0  0  0  0  0
   -2.7646   -1.0800   -8.0547 H   0  0  0  0  0  0  0  0  0  0  0  0
   -1.9165   -1.0194   -5.7238 H   0  0  0  0  0  0  0  0  0  0  0  0
   -1.7255    1.0891   -4.5327 H   0  0  0  0  0  0  0  0  0  0  0  0
    0.9213    3.7675   -1.5763 H   0  0  0  0  0  0  0  0  0  0  0  0
    4.4895    1.5925   -1.2170 H   0  0  0  0  0  0  0  0  0  0  0  0
    6.1732    2.8563   -2.5090 H   0  0  0  0  0  0  0  0  0  0  0  0
  1  2  1  0  0  0  0
  1 31  1  0  0  0  0
  1 32  1  0  0  0  0
  1 33  1  0  0  0  0
  2  3  2  0  0  0  0
  2 30  1  0  0  0  0
  3  4  1  0  0  0  0
  3 26  1  0  0  0  0
  4  5  1  0  0  0  0
  4 34  1  0  0  0  0
  5  6  2  0  0  0  0
  5 25  1  0  0  0  0
  6  7  1  0  0  0  0
  6 35  1  0  0  0  0
  7  8  1  0  0  0  0
  7  9  2  0  0  0  0
  9 10  1  0  0  0  0
  9 36  1  0  0  0  0
 10 11  1  0  0  0  0
 10 25  2  0  0  0  0
 11 12  1  0  0  0  0
 11 37  1  0  0  0  0
 11 38  1  0  0  0  0
 12 13  2  0  0  0  0
 12 14  1  0  0  0  0
 14 15  1  0  0  0  0
 14 39  1  0  0  0  0
 15 16  2  0  0  0  0
 15 24  1  0  0  0  0
 16 17  1  0  0  0  0
 16 40  1  0  0  0  0
 17 18  2  0  0  0  0
 18 19  1  0  0  0  0
 18 41  1  0  0  0  0
 19 20  2  0  0  0  0
 19 24  1  0  0  0  0
 20 21  1  0  0  0  0
 20 42  1  0  0  0  0
 21 22  2  0  0  0  0
 21 43  1  0  0  0  0
 22 23  1  0  0  0  0
 22 44  1  0  0  0  0
 23 24  2  0  0  0  0
 23 45  1  0  0  0  0
 25 46  1  0  0  0  0
 26 27  2  0  0  0  0
 26 47  1  0  0  0  0
 27 28  1  0  0  0  0
 27 48  1  0  0  0  0
 28 29  1  0  0  0  0
 28 30  2  0  0  0  0
M  END
$$$$
