
 OpenBabel07202414133D

 31 32  0  0  0  0  0  0  0  0999 V2000
    6.1571   -0.5999   -2.0023 C   0  0  0  0  0  0  0  0  0  0  0  0
    5.1632   -0.2188   -0.9162 C   0  0  0  0  0  0  0  0  0  0  0  0
    5.6407    1.0014   -0.1282 C   0  0  0  0  0  0  0  0  0  0  0  0
    4.6249    1.4097    0.9405 C   0  0  0  0  0  0  0  0  0  0  0  0
    5.0531    2.5652    1.6932 N   0  0  0  0  0  0  0  0  0  0  0  0
    4.7770    3.9279    1.4220 C   0  0  0  0  0  0  0  0  0  0  0  0
    4.1193    4.5568    0.3661 C   0  0  0  0  0  0  0  0  0  0  0  0
    3.9506    5.9626    0.4556 C   0  0  0  0  0  0  0  0  0  0  0  0
    4.4559    6.7122    1.5306 C   0  0  0  0  0  0  0  0  0  0  0  0
    5.1534    6.0943    2.5560 C   0  0  0  0  0  0  0  0  0  0  0  0
    5.2894    4.7211    2.4651 C   0  0  0  0  0  0  0  0  0  0  0  0
    5.9635    3.8460    3.4220 C   0  0  0  0  0  0  0  0  0  0  0  0
    6.5336    4.1762    4.4351 O   0  0  0  0  0  0  0  0  0  0  0  0
    5.7849    2.4215    2.8693 C   0  0  0  0  0  0  0  0  0  0  0  0
    6.2037    1.4145    3.3993 O   0  0  0  0  0  0  0  0  0  0  0  0
    4.1823    8.5814    1.5735 Br  0  0  0  0  0  0  0  0  0  0  0  0
    3.5544    3.9121   -0.8632 C   0  0  0  0  0  0  0  0  0  0  0  0
    5.7838   -1.4520   -2.5789 H   0  0  0  0  0  0  0  0  0  0  0  0
    7.1223   -0.8797   -1.5683 H   0  0  0  0  0  0  0  0  0  0  0  0
    6.3201    0.2327   -2.6943 H   0  0  0  0  0  0  0  0  0  0  0  0
    5.0251   -1.0703   -0.2395 H   0  0  0  0  0  0  0  0  0  0  0  0
    4.1907   -0.0098   -1.3770 H   0  0  0  0  0  0  0  0  0  0  0  0
    5.8247    1.8349   -0.8156 H   0  0  0  0  0  0  0  0  0  0  0  0
    6.6049    0.7797    0.3454 H   0  0  0  0  0  0  0  0  0  0  0  0
    4.5099    0.5745    1.6434 H   0  0  0  0  0  0  0  0  0  0  0  0
    3.6254    1.5838    0.5322 H   0  0  0  0  0  0  0  0  0  0  0  0
    3.4146    6.4824   -0.3396 H   0  0  0  0  0  0  0  0  0  0  0  0
    5.5641    6.6441    3.3949 H   0  0  0  0  0  0  0  0  0  0  0  0
    3.9145    2.9042   -1.0431 H   0  0  0  0  0  0  0  0  0  0  0  0
    3.8503    4.4868   -1.7494 H   0  0  0  0  0  0  0  0  0  0  0  0
    2.4618    3.8883   -0.8096 H   0  0  0  0  0  0  0  0  0  0  0  0
  1  2  1  0  0  0  0
  1 18  1  0  0  0  0
  1 19  1  0  0  0  0
  1 20  1  0  0  0  0
  2  3  1  0  0  0  0
  2 21  1  0  0  0  0
  2 22  1  0  0  0  0
  3  4  1  0  0  0  0
  3 23  1  0  0  0  0
  3 24  1  0  0  0  0
  4  5  1  0  0  0  0
  4 25  1  0  0  0  0
  4 26  1  0  0  0  0
  5  6  1  0  0  0  0
  5 14  1  0  0  0  0
  6  7  1  0  0  0  0
  6 11  2  0  0  0  0
  7  8  2  0  0  0  0
  7 17  1  0  0  0  0
  8  9  1  0  0  0  0
  8 27  1  0  0  0  0
  9 10  2  0  0  0  0
  9 16  1  0  0  0  0
 10 11  1  0  0  0  0
 10 28  1  0  0  0  0
 11 12  1  0  0  0  0
 12 13  2  0  0  0  0
 12 14  1  0  0  0  0
 14 15  2  0  0  0  0
 17 29  1  0  0  0  0
 17 30  1  0  0  0  0
 17 31  1  0  0  0  0
M  END
$$$$
