
 OpenBabel07202414183D

 60 65  0  0  1  0  0  0  0  0999 V2000
    1.0363   -0.1947    0.0558 Cl  0  0  0  0  0  0  0  0  0  0  0  0
    2.7599   -0.1138    0.1013 C   0  0  0  0  0  0  0  0  0  0  0  0
    3.5055   -1.2818    0.0501 C   0  0  0  0  0  0  0  0  0  0  0  0
    4.8972   -1.2037    0.1064 C   0  0  0  0  0  0  0  0  0  0  0  0
    5.5394    0.0421    0.1830 C   0  0  0  0  0  0  0  0  0  0  0  0
    4.7836    1.2356    0.1803 C   0  0  0  0  0  0  0  0  0  0  0  0
    3.3790    1.1383    0.1797 C   0  0  0  0  0  0  0  0  0  0  0  0
    5.4714    2.5961    0.1399 C   0  0  1  0  0  0  0  0  0  0  0  0
    6.9492    2.4367   -0.2401 C   0  0  0  0  0  0  0  0  0  0  0  0
    7.5897    1.3223    0.4156 N   0  0  0  0  0  0  0  0  0  0  0  0
    8.7484    1.5620    1.2534 C   0  0  0  0  0  0  0  0  0  0  0  0
   10.0105    2.1354    0.5859 C   0  0  0  0  0  0  0  0  0  0  0  0
    9.9896    2.8416   -0.4229 O   0  0  0  0  0  0  0  0  0  0  0  0
   11.1999    1.9118    1.2434 N   0  0  0  0  0  0  0  0  0  0  0  0
   11.3456    0.9385    2.2999 C   0  0  0  0  0  0  0  0  0  0  0  0
   12.7606    0.7799    2.7227 C   0  0  0  0  0  0  0  0  0  0  0  0
   13.7961    0.1969    1.7985 C   0  0  0  0  0  0  0  0  0  0  0  0
   13.2769   -0.6201    2.9477 C   0  0  0  0  0  0  0  0  0  0  0  0
    7.0111    0.0675    0.4013 C   0  0  0  0  0  0  0  0  0  0  0  0
    7.6168   -0.9663    0.6636 O   0  0  0  0  0  0  0  0  0  0  0  0
    4.8484    3.4993   -0.9451 C   0  0  0  0  0  0  0  0  0  0  0  0
    4.3951    4.7565   -0.2450 C   0  0  0  0  0  0  0  0  0  0  0  0
    4.7180    4.6172    1.1559 N   0  0  0  0  0  0  0  0  0  0  0  0
    4.3328    5.6872    2.0251 C   0  0  0  0  0  0  0  0  0  0  0  0
    4.5323    6.9896    1.5296 C   0  0  0  0  0  0  0  0  0  0  0  0
    4.0165    8.1223    2.0338 N   0  0  0  0  0  0  0  0  0  0  0  0
    3.3017    7.9828    3.1607 C   0  0  0  0  0  0  0  0  0  0  0  0
    3.1431    6.7820    3.8482 C   0  0  0  0  0  0  0  0  0  0  0  0
    2.4705    6.7952    5.0770 C   0  0  0  0  0  0  0  0  0  0  0  0
    2.2889    5.6181    5.7922 C   0  0  0  0  0  0  0  0  0  0  0  0
    2.7231    4.4217    5.2412 C   0  0  0  0  0  0  0  0  0  0  0  0
    2.4638    2.9618    6.1227 Cl  0  0  0  0  0  0  0  0  0  0  0  0
    3.3739    4.3893    4.0001 C   0  0  0  0  0  0  0  0  0  0  0  0
    3.6548    5.5753    3.2788 C   0  0  0  0  0  0  0  0  0  0  0  0
    5.3223    3.3963    1.4599 C   0  0  0  0  0  0  0  0  0  0  0  0
    5.7335    3.0274    2.5532 O   0  0  0  0  0  0  0  0  0  0  0  0
    3.0204   -2.2510   -0.0150 H   0  0  0  0  0  0  0  0  0  0  0  0
    5.4848   -2.1218    0.1101 H   0  0  0  0  0  0  0  0  0  0  0  0
    2.7565    2.0250    0.2317 H   0  0  0  0  0  0  0  0  0  0  0  0
    7.5114    3.3596   -0.0728 H   0  0  0  0  0  0  0  0  0  0  0  0
    7.0290    2.1995   -1.3141 H   0  0  0  0  0  0  0  0  0  0  0  0
    8.9834    0.6232    1.7555 H   0  0  0  0  0  0  0  0  0  0  0  0
    8.4438    2.2696    2.0316 H   0  0  0  0  0  0  0  0  0  0  0  0
   12.0225    2.2860    0.7867 H   0  0  0  0  0  0  0  0  0  0  0  0
   10.9525   -0.0128    1.9271 H   0  0  0  0  0  0  0  0  0  0  0  0
   10.7310    1.2564    3.1495 H   0  0  0  0  0  0  0  0  0  0  0  0
   13.0706    1.5522    3.4176 H   0  0  0  0  0  0  0  0  0  0  0  0
   14.8089    0.5765    1.8683 H   0  0  0  0  0  0  0  0  0  0  0  0
   13.4918   -0.0801    0.7947 H   0  0  0  0  0  0  0  0  0  0  0  0
   13.9223   -0.7933    3.7994 H   0  0  0  0  0  0  0  0  0  0  0  0
   12.6282   -1.4603    2.7130 H   0  0  0  0  0  0  0  0  0  0  0  0
    4.0238    3.0502   -1.4987 H   0  0  0  0  0  0  0  0  0  0  0  0
    5.5784    3.7876   -1.7154 H   0  0  0  0  0  0  0  0  0  0  0  0
    3.3123    4.8869   -0.3447 H   0  0  0  0  0  0  0  0  0  0  0  0
    4.9058    5.6162   -0.6837 H   0  0  0  0  0  0  0  0  0  0  0  0
    5.1655    7.1663    0.6658 H   0  0  0  0  0  0  0  0  0  0  0  0
    2.8466    8.9042    3.5127 H   0  0  0  0  0  0  0  0  0  0  0  0
    2.1028    7.7300    5.4987 H   0  0  0  0  0  0  0  0  0  0  0  0
    1.8067    5.6513    6.7667 H   0  0  0  0  0  0  0  0  0  0  0  0
    3.6751    3.4192    3.6182 H   0  0  0  0  0  0  0  0  0  0  0  0
  1  2  1  0  0  0  0
  2  3  1  0  0  0  0
  2  7  2  0  0  0  0
  3  4  2  0  0  0  0
  3 37  1  0  0  0  0
  4  5  1  0  0  0  0
  4 38  1  0  0  0  0
  5  6  2  0  0  0  0
  5 19  1  0  0  0  0
  6  7  1  0  0  0  0
  7 39  1  0  0  0  0
  8  6  1  1  0  0  0
  8  9  1  0  0  0  0
  8 21  1  0  0  0  0
  8 35  1  0  0  0  0
  9 10  1  0  0  0  0
  9 40  1  0  0  0  0
  9 41  1  0  0  0  0
 10 11  1  0  0  0  0
 10 19  1  0  0  0  0
 11 12  1  0  0  0  0
 11 42  1  0  0  0  0
 11 43  1  0  0  0  0
 12 13  2  0  0  0  0
 12 14  1  0  0  0  0
 14 15  1  0  0  0  0
 14 44  1  0  0  0  0
 15 16  1  0  0  0  0
 15 45  1  0  0  0  0
 15 46  1  0  0  0  0
 16 17  1  0  0  0  0
 16 18  1  0  0  0  0
 16 47  1  0  0  0  0
 17 18  1  0  0  0  0
 17 48  1  0  0  0  0
 17 49  1  0  0  0  0
 18 50  1  0  0  0  0
 18 51  1  0  0  0  0
 19 20  2  0  0  0  0
 21 22  1  0  0  0  0
 21 52  1  0  0  0  0
 21 53  1  0  0  0  0
 22 23  1  0  0  0  0
 22 54  1  0  0  0  0
 22 55  1  0  0  0  0
 23 24  1  0  0  0  0
 23 35  1  0  0  0  0
 24 25  1  0  0  0  0
 24 34  2  0  0  0  0
 25 26  2  0  0  0  0
 25 56  1  0  0  0  0
 26 27  1  0  0  0  0
 27 28  2  0  0  0  0
 27 57  1  0  0  0  0
 28 29  1  0  0  0  0
 28 34  1  0  0  0  0
 29 30  2  0  0  0  0
 29 58  1  0  0  0  0
 30 31  1  0  0  0  0
 30 59  1  0  0  0  0
 31 32  1  0  0  0  0
 31 33  2  0  0  0  0
 33 34  1  0  0  0  0
 33 60  1  0  0  0  0
 35 36  2  0  0  0  0
M  END
$$$$
