
 OpenBabel07202414143D

 57 61  0  0  0  0  0  0  0  0999 V2000
    0.3978    1.1889    0.3792 C   0  0  0  0  0  0  0  0  0  0  0  0
    1.3792    0.2443    0.7876 O   0  0  0  0  0  0  0  0  0  0  0  0
    2.2590    0.6592    1.7483 C   0  0  0  0  0  0  0  0  0  0  0  0
    2.3029    1.9274    2.3233 C   0  0  0  0  0  0  0  0  0  0  0  0
    3.2521    2.2186    3.3084 C   0  0  0  0  0  0  0  0  0  0  0  0
    4.1691    1.2557    3.7389 C   0  0  0  0  0  0  0  0  0  0  0  0
    5.1777    1.5856    4.7520 C   0  0  0  0  0  0  0  0  0  0  0  0
    5.2343    2.8070    5.3019 N   0  0  0  0  0  0  0  0  0  0  0  0
    6.3627    2.8107    6.0503 N   0  0  0  0  0  0  0  0  0  0  0  0
    6.8651    4.0446    6.5395 C   0  0  0  0  0  0  0  0  0  0  0  0
    8.2324    4.1981    6.7914 C   0  0  0  0  0  0  0  0  0  0  0  0
    8.7468    5.4032    7.2838 C   0  0  0  0  0  0  0  0  0  0  0  0
   10.2292    5.6135    7.4830 C   0  0  0  0  0  0  0  0  0  0  0  0
   11.0678    4.3874    7.8438 C   0  0  0  0  0  0  0  0  0  0  0  0
   10.6122    3.3534    8.3196 O   0  0  0  0  0  0  0  0  0  0  0  0
   12.4210    4.6249    7.6279 N   0  0  0  0  0  0  0  0  0  0  0  0
   13.4113    3.6836    8.0022 C   0  0  0  0  0  0  0  0  0  0  0  0
   14.3566    4.0879    8.9451 C   0  0  0  0  0  0  0  0  0  0  0  0
   15.3827    3.3287    9.3752 N   0  0  0  0  0  0  0  0  0  0  0  0
   15.5593    2.1605    8.7254 C   0  0  0  0  0  0  0  0  0  0  0  0
   14.7836    1.7284    7.6490 C   0  0  0  0  0  0  0  0  0  0  0  0
   15.2005    0.6540    6.8452 C   0  0  0  0  0  0  0  0  0  0  0  0
   14.4193    0.2232    5.7773 C   0  0  0  0  0  0  0  0  0  0  0  0
   13.1730    0.7997    5.5646 C   0  0  0  0  0  0  0  0  0  0  0  0
   12.7687    1.8979    6.3329 C   0  0  0  0  0  0  0  0  0  0  0  0
   13.6036    2.4421    7.3409 C   0  0  0  0  0  0  0  0  0  0  0  0
    7.8646    6.4781    7.4745 C   0  0  0  0  0  0  0  0  0  0  0  0
    6.5053    6.3402    7.1853 C   0  0  0  0  0  0  0  0  0  0  0  0
    5.4514    7.6841    7.4019 Cl  0  0  0  0  0  0  0  0  0  0  0  0
    6.0008    5.1334    6.7094 C   0  0  0  0  0  0  0  0  0  0  0  0
    6.8991    1.5270    6.1689 C   0  0  0  0  0  0  0  0  0  0  0  0
    7.9083    1.1596    6.9973 N   0  0  0  0  0  0  0  0  0  0  0  0
    6.1782    0.7452    5.3003 C   0  0  0  0  0  0  0  0  0  0  0  0
    4.1306   -0.0158    3.1398 C   0  0  0  0  0  0  0  0  0  0  0  0
    3.1783   -0.3071    2.1584 C   0  0  0  0  0  0  0  0  0  0  0  0
   -0.2582    0.6984   -0.3455 H   0  0  0  0  0  0  0  0  0  0  0  0
    0.8640    2.0467   -0.1169 H   0  0  0  0  0  0  0  0  0  0  0  0
   -0.2213    1.5090    1.2242 H   0  0  0  0  0  0  0  0  0  0  0  0
    1.6192    2.7173    2.0326 H   0  0  0  0  0  0  0  0  0  0  0  0
    3.2682    3.2180    3.7407 H   0  0  0  0  0  0  0  0  0  0  0  0
    8.9182    3.3891    6.5507 H   0  0  0  0  0  0  0  0  0  0  0  0
   10.3846    6.3445    8.2865 H   0  0  0  0  0  0  0  0  0  0  0  0
   10.6234    6.0423    6.5528 H   0  0  0  0  0  0  0  0  0  0  0  0
   12.6839    5.5965    7.7493 H   0  0  0  0  0  0  0  0  0  0  0  0
   14.3050    5.0679    9.4100 H   0  0  0  0  0  0  0  0  0  0  0  0
   16.3877    1.5616    9.0961 H   0  0  0  0  0  0  0  0  0  0  0  0
   16.1723    0.1919    7.0087 H   0  0  0  0  0  0  0  0  0  0  0  0
   14.7820   -0.5616    5.1183 H   0  0  0  0  0  0  0  0  0  0  0  0
   12.5260    0.4173    4.7789 H   0  0  0  0  0  0  0  0  0  0  0  0
   11.7960    2.3364    6.1248 H   0  0  0  0  0  0  0  0  0  0  0  0
    8.2400    7.4373    7.8243 H   0  0  0  0  0  0  0  0  0  0  0  0
    4.9397    5.0410    6.4882 H   0  0  0  0  0  0  0  0  0  0  0  0
    8.1853    1.7405    7.7915 H   0  0  0  0  0  0  0  0  0  0  0  0
    8.0886    0.1737    7.1734 H   0  0  0  0  0  0  0  0  0  0  0  0
    6.3509   -0.3026    5.1047 H   0  0  0  0  0  0  0  0  0  0  0  0
    4.8324   -0.7951    3.4205 H   0  0  0  0  0  0  0  0  0  0  0  0
    3.1561   -1.2972    1.7101 H   0  0  0  0  0  0  0  0  0  0  0  0
  1  2  1  0  0  0  0
  1 36  1  0  0  0  0
  1 37  1  0  0  0  0
  1 38  1  0  0  0  0
  2  3  1  0  0  0  0
  3  4  2  0  0  0  0
  3 35  1  0  0  0  0
  4  5  1  0  0  0  0
  4 39  1  0  0  0  0
  5  6  2  0  0  0  0
  5 40  1  0  0  0  0
  6  7  1  0  0  0  0
  6 34  1  0  0  0  0
  7  8  2  0  0  0  0
  7 33  1  0  0  0  0
  8  9  1  0  0  0  0
  9 10  1  0  0  0  0
  9 31  1  0  0  0  0
 10 11  2  0  0  0  0
 10 30  1  0  0  0  0
 11 12  1  0  0  0  0
 11 41  1  0  0  0  0
 12 13  1  0  0  0  0
 12 27  2  0  0  0  0
 13 14  1  0  0  0  0
 13 42  1  0  0  0  0
 13 43  1  0  0  0  0
 14 15  2  0  0  0  0
 14 16  1  0  0  0  0
 16 17  1  0  0  0  0
 16 44  1  0  0  0  0
 17 18  2  0  0  0  0
 17 26  1  0  0  0  0
 18 19  1  0  0  0  0
 18 45  1  0  0  0  0
 19 20  2  0  0  0  0
 20 21  1  0  0  0  0
 20 46  1  0  0  0  0
 21 22  2  0  0  0  0
 21 26  1  0  0  0  0
 22 23  1  0  0  0  0
 22 47  1  0  0  0  0
 23 24  2  0  0  0  0
 23 48  1  0  0  0  0
 24 25  1  0  0  0  0
 24 49  1  0  0  0  0
 25 26  2  0  0  0  0
 25 50  1  0  0  0  0
 27 28  1  0  0  0  0
 27 51  1  0  0  0  0
 28 29  1  0  0  0  0
 28 30  2  0  0  0  0
 30 52  1  0  0  0  0
 31 32  1  0  0  0  0
 31 33  2  0  0  0  0
 32 53  1  0  0  0  0
 32 54  1  0  0  0  0
 33 55  1  0  0  0  0
 34 35  2  0  0  0  0
 34 56  1  0  0  0  0
 35 57  1  0  0  0  0
M  END
$$$$
