
 OpenBabel07202414183D

 61 65  0  0  0  0  0  0  0  0999 V2000
    0.6989    0.7182    1.1554 F   0  0  0  0  0  0  0  0  0  0  0  0
    0.8940   -0.4205    0.4277 C   0  0  0  0  0  0  0  0  0  0  0  0
   -0.3488   -0.9461    0.2382 F   0  0  0  0  0  0  0  0  0  0  0  0
    1.3213   -0.0101   -0.7966 F   0  0  0  0  0  0  0  0  0  0  0  0
    1.8364   -1.3985    1.0843 C   0  0  0  0  0  0  0  0  0  0  0  0
    2.4849   -1.0505    2.2726 C   0  0  0  0  0  0  0  0  0  0  0  0
    3.2878   -1.9485    2.9991 C   0  0  0  0  0  0  0  0  0  0  0  0
    3.8201   -1.5927    4.2739 N   0  0  0  0  0  0  0  0  0  0  0  0
    3.7425   -0.3857    5.0077 C   0  0  0  0  0  0  0  0  0  0  0  0
    2.6153    0.4455    4.9926 C   0  0  0  0  0  0  0  0  0  0  0  0
    2.6479    1.7638    5.4732 C   0  0  0  0  0  0  0  0  0  0  0  0
    1.4974    2.6947    5.1674 C   0  0  0  0  0  0  0  0  0  0  0  0
    0.7255    3.2242    6.3513 C   0  0  0  0  0  0  0  0  0  0  0  0
    0.3826    4.4061    6.3979 O   0  0  0  0  0  0  0  0  0  0  0  0
    0.3999    2.2694    7.3081 N   0  0  0  0  0  0  0  0  0  0  0  0
   -0.2951    2.6873    8.4684 C   0  0  0  0  0  0  0  0  0  0  0  0
   -1.5381    3.3117    8.3521 C   0  0  0  0  0  0  0  0  0  0  0  0
   -2.2370    3.8092    9.3961 N   0  0  0  0  0  0  0  0  0  0  0  0
   -1.5938    3.8182   10.5823 C   0  0  0  0  0  0  0  0  0  0  0  0
   -0.3041    3.3164   10.7887 C   0  0  0  0  0  0  0  0  0  0  0  0
    0.4102    3.5770   11.9705 C   0  0  0  0  0  0  0  0  0  0  0  0
    1.6920    3.0593   12.1552 C   0  0  0  0  0  0  0  0  0  0  0  0
    2.2334    2.2018   11.2043 C   0  0  0  0  0  0  0  0  0  0  0  0
    1.5565    1.9778   10.0051 C   0  0  0  0  0  0  0  0  0  0  0  0
    0.3174    2.6106    9.7377 C   0  0  0  0  0  0  0  0  0  0  0  0
    3.8002    2.2110    6.1253 C   0  0  0  0  0  0  0  0  0  0  0  0
    4.8931    1.3515    6.2560 C   0  0  0  0  0  0  0  0  0  0  0  0
    6.3084    1.9025    7.0670 Cl  0  0  0  0  0  0  0  0  0  0  0  0
    4.8837    0.0747    5.6814 C   0  0  0  0  0  0  0  0  0  0  0  0
    3.5417   -3.2428    2.4542 C   0  0  0  0  0  0  0  0  0  0  0  0
    4.4253   -4.1347    3.0965 N   0  0  0  0  0  0  0  0  0  0  0  0
    5.1324   -5.1713    2.3161 C   0  0  0  0  0  0  0  0  0  0  0  0
    4.7179   -6.4965    2.9448 C   0  0  0  0  0  0  0  0  0  0  0  0
    4.5577   -6.1271    4.4051 C   0  0  0  0  0  0  0  0  0  0  0  0
    3.9206   -4.7372    4.3496 C   0  0  0  0  0  0  0  0  0  0  0  0
    2.9172   -3.5601    1.2286 C   0  0  0  0  0  0  0  0  0  0  0  0
    2.0709   -2.6628    0.5598 C   0  0  0  0  0  0  0  0  0  0  0  0
    2.3661   -0.0273    2.6069 H   0  0  0  0  0  0  0  0  0  0  0  0
    4.6193   -2.1878    4.4786 H   0  0  0  0  0  0  0  0  0  0  0  0
    1.6913    0.0787    4.5502 H   0  0  0  0  0  0  0  0  0  0  0  0
    0.7647    2.2058    4.5142 H   0  0  0  0  0  0  0  0  0  0  0  0
    1.8919    3.5492    4.6036 H   0  0  0  0  0  0  0  0  0  0  0  0
    1.1057    1.5549    7.4304 H   0  0  0  0  0  0  0  0  0  0  0  0
   -2.0213    3.4210    7.3828 H   0  0  0  0  0  0  0  0  0  0  0  0
   -2.1565    4.2686   11.3951 H   0  0  0  0  0  0  0  0  0  0  0  0
   -0.0017    4.2440   12.7258 H   0  0  0  0  0  0  0  0  0  0  0  0
    2.2673    3.3247   13.0392 H   0  0  0  0  0  0  0  0  0  0  0  0
    3.2026    1.7393   11.3745 H   0  0  0  0  0  0  0  0  0  0  0  0
    2.0202    1.3170    9.2783 H   0  0  0  0  0  0  0  0  0  0  0  0
    3.8568    3.2276    6.5085 H   0  0  0  0  0  0  0  0  0  0  0  0
    5.7766   -0.5367    5.7238 H   0  0  0  0  0  0  0  0  0  0  0  0
    6.2095   -5.0179    2.4530 H   0  0  0  0  0  0  0  0  0  0  0  0
    4.9553   -5.1703    1.2373 H   0  0  0  0  0  0  0  0  0  0  0  0
    5.4623   -7.2830    2.7868 H   0  0  0  0  0  0  0  0  0  0  0  0
    3.7615   -6.8396    2.5327 H   0  0  0  0  0  0  0  0  0  0  0  0
    5.5432   -6.0740    4.8841 H   0  0  0  0  0  0  0  0  0  0  0  0
    3.9497   -6.8450    4.9636 H   0  0  0  0  0  0  0  0  0  0  0  0
    4.2361   -4.1590    5.2236 H   0  0  0  0  0  0  0  0  0  0  0  0
    2.8282   -4.8245    4.3520 H   0  0  0  0  0  0  0  0  0  0  0  0
    3.0516   -4.5338    0.7689 H   0  0  0  0  0  0  0  0  0  0  0  0
    1.6023   -2.9616   -0.3768 H   0  0  0  0  0  0  0  0  0  0  0  0
  1  2  1  0  0  0  0
  2  3  1  0  0  0  0
  2  4  1  0  0  0  0
  2  5  1  0  0  0  0
  5  6  2  0  0  0  0
  5 37  1  0  0  0  0
  6  7  1  0  0  0  0
  6 38  1  0  0  0  0
  7  8  1  0  0  0  0
  7 30  2  0  0  0  0
  8  9  1  0  0  0  0
  8 39  1  0  0  0  0
  9 10  2  0  0  0  0
  9 29  1  0  0  0  0
 10 11  1  0  0  0  0
 10 40  1  0  0  0  0
 11 12  1  0  0  0  0
 11 26  2  0  0  0  0
 12 13  1  0  0  0  0
 12 41  1  0  0  0  0
 12 42  1  0  0  0  0
 13 14  2  0  0  0  0
 13 15  1  0  0  0  0
 15 16  1  0  0  0  0
 15 43  1  0  0  0  0
 16 17  2  0  0  0  0
 16 25  1  0  0  0  0
 17 18  1  0  0  0  0
 17 44  1  0  0  0  0
 18 19  2  0  0  0  0
 19 20  1  0  0  0  0
 19 45  1  0  0  0  0
 20 21  2  0  0  0  0
 20 25  1  0  0  0  0
 21 22  1  0  0  0  0
 21 46  1  0  0  0  0
 22 23  2  0  0  0  0
 22 47  1  0  0  0  0
 23 24  1  0  0  0  0
 23 48  1  0  0  0  0
 24 25  2  0  0  0  0
 24 49  1  0  0  0  0
 26 27  1  0  0  0  0
 26 50  1  0  0  0  0
 27 28  1  0  0  0  0
 27 29  2  0  0  0  0
 29 51  1  0  0  0  0
 30 31  1  0  0  0  0
 30 36  1  0  0  0  0
 31 32  1  0  0  0  0
 31 35  1  0  0  0  0
 32 33  1  0  0  0  0
 32 52  1  0  0  0  0
 32 53  1  0  0  0  0
 33 34  1  0  0  0  0
 33 54  1  0  0  0  0
 33 55  1  0  0  0  0
 34 35  1  0  0  0  0
 34 56  1  0  0  0  0
 34 57  1  0  0  0  0
 35 58  1  0  0  0  0
 35 59  1  0  0  0  0
 36 37  2  0  0  0  0
 36 60  1  0  0  0  0
 37 61  1  0  0  0  0
M  END
$$$$
