
 OpenBabel07202414123D

 73 77  0  0  1  0  0  0  0  0999 V2000
    2.1675    6.3593    5.0958 C   0  0  0  0  0  0  0  0  0  0  0  0
    1.3325    6.4827    3.7966 C   0  0  0  0  0  0  0  0  0  0  0  0
    0.1895    5.4500    3.8645 C   0  0  0  0  0  0  0  0  0  0  0  0
    0.7111    7.8990    3.8240 C   0  0  0  0  0  0  0  0  0  0  0  0
    2.1693    6.2098    2.5263 C   0  0  0  0  0  0  0  0  0  0  0  0
    3.2404    5.2995    2.5467 C   0  0  0  0  0  0  0  0  0  0  0  0
    3.9934    5.0100    1.4018 C   0  0  0  0  0  0  0  0  0  0  0  0
    3.7010    5.6210    0.1821 C   0  0  0  0  0  0  0  0  0  0  0  0
    4.5301    5.3476   -0.9527 N   0  0  0  0  0  0  0  0  0  0  0  0
    5.8239    6.1220   -1.0576 C   0  0  3  0  0  0  0  0  0  0  0  0
    6.0778    6.9830    0.1780 C   0  0  0  0  0  0  0  0  0  0  0  0
    6.5230    6.5853    1.2470 O   0  0  0  0  0  0  0  0  0  0  0  0
    5.7102    8.2988   -0.0293 N   0  0  0  0  0  0  0  0  0  0  0  0
    5.7146    9.2091    1.0768 C   0  0  0  0  0  0  0  0  0  0  0  0
    5.9967   10.5956    0.5504 C   0  0  0  0  0  0  0  0  0  0  0  0
    6.0682   11.5726    1.6854 C   0  0  0  0  0  0  0  0  0  0  0  0
    4.9029   12.1997    2.1250 C   0  0  0  0  0  0  0  0  0  0  0  0
    4.9519   13.0425    3.2317 C   0  0  0  0  0  0  0  0  0  0  0  0
    6.1514   13.2280    3.9142 C   0  0  0  0  0  0  0  0  0  0  0  0
    7.3083   12.5606    3.4883 C   0  0  0  0  0  0  0  0  0  0  0  0
    8.4524   12.7209    4.1574 F   0  0  0  0  0  0  0  0  0  0  0  0
    7.2652   11.7246    2.3906 C   0  0  0  0  0  0  0  0  0  0  0  0
    7.0885    5.2992   -1.2251 C   0  0  0  0  0  0  0  0  0  0  0  0
    7.1751    4.1409   -0.5140 C   0  0  0  0  0  0  0  0  0  0  0  0
    8.0404    3.1517   -1.2031 C   0  0  0  0  0  0  0  0  0  0  0  0
    7.7448    1.9798   -1.2297 O   0  0  0  0  0  0  0  0  0  0  0  0
    9.1967    3.6418   -1.7393 N   0  0  0  0  0  0  0  0  0  0  0  0
    9.5142    4.9929   -1.5336 C   0  0  0  0  0  0  0  0  0  0  0  0
   10.8280    5.3196   -1.1934 C   0  0  0  0  0  0  0  0  0  0  0  0
   11.1223    6.6247   -0.8352 C   0  0  0  0  0  0  0  0  0  0  0  0
   10.1356    7.6067   -0.9557 C   0  0  0  0  0  0  0  0  0  0  0  0
    8.8089    7.2580   -1.2795 C   0  0  0  0  0  0  0  0  0  0  0  0
    8.4579    5.9191   -1.4322 C   0  0  0  0  0  0  0  0  0  0  0  0
    3.9845    4.8293   -2.1496 C   0  0  0  0  0  0  0  0  0  0  0  0
    4.6243    4.9083   -3.2088 O   0  0  0  0  0  0  0  0  0  0  0  0
    2.6405    4.2006   -2.1658 C   0  0  0  0  0  0  0  0  0  0  0  0
    2.0295    3.6654   -3.2875 C   0  0  0  0  0  0  0  0  0  0  0  0
    0.7720    3.2473   -2.9651 O   0  0  0  0  0  0  0  0  0  0  0  0
    0.6893    3.5274   -1.6374 C   0  0  0  0  0  0  0  0  0  0  0  0
    1.7522    4.0692   -1.1083 N   0  0  0  0  0  0  0  0  0  0  0  0
    2.6289    6.5229    0.1315 C   0  0  0  0  0  0  0  0  0  0  0  0
    1.8684    6.7995    1.2841 C   0  0  0  0  0  0  0  0  0  0  0  0
    1.5700    6.6235    5.9772 H   0  0  0  0  0  0  0  0  0  0  0  0
    3.0374    7.0256    5.0734 H   0  0  0  0  0  0  0  0  0  0  0  0
    2.5246    5.3384    5.2668 H   0  0  0  0  0  0  0  0  0  0  0  0
   -0.4167    5.5893    4.7681 H   0  0  0  0  0  0  0  0  0  0  0  0
    0.5765    4.4245    3.8840 H   0  0  0  0  0  0  0  0  0  0  0  0
   -0.4803    5.5339    3.0011 H   0  0  0  0  0  0  0  0  0  0  0  0
    0.1745    8.0741    4.7657 H   0  0  0  0  0  0  0  0  0  0  0  0
   -0.0184    8.0515    3.0221 H   0  0  0  0  0  0  0  0  0  0  0  0
    1.4818    8.6732    3.7367 H   0  0  0  0  0  0  0  0  0  0  0  0
    3.5187    4.7799    3.4593 H   0  0  0  0  0  0  0  0  0  0  0  0
    4.8129    4.3026    1.4766 H   0  0  0  0  0  0  0  0  0  0  0  0
    5.7318    6.7556   -1.9494 H   0  0  0  0  0  0  0  0  0  0  0  0
    5.1870    8.5438   -0.8615 H   0  0  0  0  0  0  0  0  0  0  0  0
    6.4694    8.8991    1.8111 H   0  0  0  0  0  0  0  0  0  0  0  0
    4.7359    9.1333    1.5645 H   0  0  0  0  0  0  0  0  0  0  0  0
    5.2197   10.8967   -0.1639 H   0  0  0  0  0  0  0  0  0  0  0  0
    6.9396   10.6060   -0.0119 H   0  0  0  0  0  0  0  0  0  0  0  0
    3.9593   12.0410    1.6178 H   0  0  0  0  0  0  0  0  0  0  0  0
    4.0502   13.5430    3.5746 H   0  0  0  0  0  0  0  0  0  0  0  0
    6.2062   13.8720    4.7844 H   0  0  0  0  0  0  0  0  0  0  0  0
    8.1681   11.1903    2.0962 H   0  0  0  0  0  0  0  0  0  0  0  0
    7.5817    4.2571    0.5060 H   0  0  0  0  0  0  0  0  0  0  0  0
    9.2514    3.3387   -2.7138 H   0  0  0  0  0  0  0  0  0  0  0  0
   11.5732    4.5376   -1.0884 H   0  0  0  0  0  0  0  0  0  0  0  0
   12.1084    6.8703   -0.4434 H   0  0  0  0  0  0  0  0  0  0  0  0
   10.3929    8.6375   -0.7180 H   0  0  0  0  0  0  0  0  0  0  0  0
    8.0798    8.0623   -1.2979 H   0  0  0  0  0  0  0  0  0  0  0  0
    2.3215    3.5422   -4.3224 H   0  0  0  0  0  0  0  0  0  0  0  0
   -0.2587    3.2919   -1.1497 H   0  0  0  0  0  0  0  0  0  0  0  0
    2.3522    6.9989   -0.8045 H   0  0  0  0  0  0  0  0  0  0  0  0
    1.0235    7.4749    1.1782 H   0  0  0  0  0  0  0  0  0  0  0  0
  1  2  1  0  0  0  0
  1 43  1  0  0  0  0
  1 44  1  0  0  0  0
  1 45  1  0  0  0  0
  2  3  1  0  0  0  0
  2  4  1  0  0  0  0
  2  5  1  0  0  0  0
  3 46  1  0  0  0  0
  3 47  1  0  0  0  0
  3 48  1  0  0  0  0
  4 49  1  0  0  0  0
  4 50  1  0  0  0  0
  4 51  1  0  0  0  0
  5  6  1  0  0  0  0
  5 42  2  0  0  0  0
  6  7  2  0  0  0  0
  6 52  1  0  0  0  0
  7  8  1  0  0  0  0
  7 53  1  0  0  0  0
  8  9  1  0  0  0  0
  8 41  2  0  0  0  0
  9 10  1  0  0  0  0
  9 34  1  0  0  0  0
 10 11  1  0  0  0  0
 10 23  1  0  0  0  0
 10 54  1  0  0  0  0
 11 12  2  0  0  0  0
 11 13  1  0  0  0  0
 13 14  1  0  0  0  0
 13 55  1  0  0  0  0
 14 15  1  0  0  0  0
 14 56  1  0  0  0  0
 14 57  1  0  0  0  0
 15 16  1  0  0  0  0
 15 58  1  0  0  0  0
 15 59  1  0  0  0  0
 16 17  1  0  0  0  0
 16 22  2  0  0  0  0
 17 18  2  0  0  0  0
 17 60  1  0  0  0  0
 18 19  1  0  0  0  0
 18 61  1  0  0  0  0
 19 20  2  0  0  0  0
 19 62  1  0  0  0  0
 20 21  1  0  0  0  0
 20 22  1  0  0  0  0
 22 63  1  0  0  0  0
 23 24  2  0  0  0  0
 23 33  1  0  0  0  0
 24 25  1  0  0  0  0
 24 64  1  0  0  0  0
 25 26  2  0  0  0  0
 25 27  1  0  0  0  0
 27 28  1  0  0  0  0
 27 65  1  0  0  0  0
 28 29  1  0  0  0  0
 28 33  2  0  0  0  0
 29 30  2  0  0  0  0
 29 66  1  0  0  0  0
 30 31  1  0  0  0  0
 30 67  1  0  0  0  0
 31 32  2  0  0  0  0
 31 68  1  0  0  0  0
 32 33  1  0  0  0  0
 32 69  1  0  0  0  0
 34 35  2  0  0  0  0
 34 36  1  0  0  0  0
 36 37  2  0  0  0  0
 36 40  1  0  0  0  0
 37 38  1  0  0  0  0
 37 70  1  0  0  0  0
 38 39  1  0  0  0  0
 39 40  2  0  0  0  0
 39 71  1  0  0  0  0
 41 42  1  0  0  0  0
 41 72  1  0  0  0  0
 42 73  1  0  0  0  0
M  END
$$$$
