
 OpenBabel07202414143D

 41 43  0  0  1  0  0  0  0  0999 V2000
    5.3410    3.6734   -0.9388 C   0  0  0  0  0  0  0  0  0  0  0  0
    5.5111    3.2591    0.4493 N   0  0  0  0  0  0  0  0  0  0  0  0
    4.4102    2.6440    1.0788 C   0  0  0  0  0  0  0  0  0  0  0  0
    3.5367    1.8144    0.3615 C   0  0  0  0  0  0  0  0  0  0  0  0
    2.5020    1.1266    0.8801 N   0  0  0  0  0  0  0  0  0  0  0  0
    2.3336    1.2283    2.2139 C   0  0  0  0  0  0  0  0  0  0  0  0
    3.1376    1.9883    3.0701 C   0  0  0  0  0  0  0  0  0  0  0  0
    2.9119    2.0237    4.4777 N   0  0  0  0  0  0  0  0  0  0  0  0
    1.7854    1.5631    5.1337 C   0  0  0  0  0  0  0  0  0  0  0  0
    0.7998    1.0766    4.5734 O   0  0  0  0  0  0  0  0  0  0  0  0
    1.7182    1.7634    6.6514 C   0  0  3  0  0  0  0  0  0  0  0  0
    0.6338    2.7968    6.9687 C   0  0  0  0  0  0  0  0  0  0  0  0
    1.1889    4.1896    6.7245 C   0  0  0  0  0  0  0  0  0  0  0  0
    2.3040    4.4883    7.5679 O   0  0  0  0  0  0  0  0  0  0  0  0
    3.2058    3.4788    7.7537 C   0  0  0  0  0  0  0  0  0  0  0  0
    4.3682    3.8274    8.4425 C   0  0  0  0  0  0  0  0  0  0  0  0
    5.3404    2.8654    8.7146 C   0  0  0  0  0  0  0  0  0  0  0  0
    5.1467    1.5524    8.2935 C   0  0  0  0  0  0  0  0  0  0  0  0
    6.3422    0.3624    8.6328 Cl  0  0  0  0  0  0  0  0  0  0  0  0
    3.9866    1.1918    7.6093 C   0  0  0  0  0  0  0  0  0  0  0  0
    2.9999    2.1560    7.3412 C   0  0  0  0  0  0  0  0  0  0  0  0
    4.2045    2.7235    2.4844 C   0  0  0  0  0  0  0  0  0  0  0  0
    5.1172    3.5802    3.3344 C   0  0  0  0  0  0  0  0  0  0  0  0
    6.1973    4.2846   -1.2408 H   0  0  0  0  0  0  0  0  0  0  0  0
    4.4377    4.2814   -1.0625 H   0  0  0  0  0  0  0  0  0  0  0  0
    5.3034    2.8146   -1.6164 H   0  0  0  0  0  0  0  0  0  0  0  0
    5.9460    3.9874    1.0023 H   0  0  0  0  0  0  0  0  0  0  0  0
    3.6524    1.6575   -0.7059 H   0  0  0  0  0  0  0  0  0  0  0  0
    1.5118    0.6181    2.5693 H   0  0  0  0  0  0  0  0  0  0  0  0
    3.6278    2.4656    5.0383 H   0  0  0  0  0  0  0  0  0  0  0  0
    1.3945    0.7977    7.0644 H   0  0  0  0  0  0  0  0  0  0  0  0
    0.3437    2.7021    8.0233 H   0  0  0  0  0  0  0  0  0  0  0  0
   -0.2672    2.6384    6.3655 H   0  0  0  0  0  0  0  0  0  0  0  0
    0.4137    4.9322    6.9402 H   0  0  0  0  0  0  0  0  0  0  0  0
    1.4885    4.3351    5.6799 H   0  0  0  0  0  0  0  0  0  0  0  0
    4.5074    4.8517    8.7831 H   0  0  0  0  0  0  0  0  0  0  0  0
    6.2377    3.1452    9.2615 H   0  0  0  0  0  0  0  0  0  0  0  0
    3.8407    0.1573    7.3033 H   0  0  0  0  0  0  0  0  0  0  0  0
    4.6159    3.9600    4.2277 H   0  0  0  0  0  0  0  0  0  0  0  0
    5.4338    4.4854    2.8072 H   0  0  0  0  0  0  0  0  0  0  0  0
    6.0010    3.0092    3.6325 H   0  0  0  0  0  0  0  0  0  0  0  0
  1  2  1  0  0  0  0
  1 24  1  0  0  0  0
  1 25  1  0  0  0  0
  1 26  1  0  0  0  0
  2  3  1  0  0  0  0
  2 27  1  0  0  0  0
  3  4  1  0  0  0  0
  3 22  2  0  0  0  0
  4  5  2  0  0  0  0
  4 28  1  0  0  0  0
  5  6  1  0  0  0  0
  6  7  2  0  0  0  0
  6 29  1  0  0  0  0
  7  8  1  0  0  0  0
  7 22  1  0  0  0  0
  8  9  1  0  0  0  0
  8 30  1  0  0  0  0
  9 10  2  0  0  0  0
  9 11  1  0  0  0  0
 11 12  1  0  0  0  0
 11 21  1  0  0  0  0
 11 31  1  0  0  0  0
 12 13  1  0  0  0  0
 12 32  1  0  0  0  0
 12 33  1  0  0  0  0
 13 14  1  0  0  0  0
 13 34  1  0  0  0  0
 13 35  1  0  0  0  0
 14 15  1  0  0  0  0
 15 16  1  0  0  0  0
 15 21  2  0  0  0  0
 16 17  2  0  0  0  0
 16 36  1  0  0  0  0
 17 18  1  0  0  0  0
 17 37  1  0  0  0  0
 18 19  1  0  0  0  0
 18 20  2  0  0  0  0
 20 21  1  0  0  0  0
 20 38  1  0  0  0  0
 22 23  1  0  0  0  0
 23 39  1  0  0  0  0
 23 40  1  0  0  0  0
 23 41  1  0  0  0  0
M  END
$$$$
