
 OpenBabel07202414133D

 49 52  0  0  0  0  0  0  0  0999 V2000
    2.2854   -1.0800   -0.0930 C   0  0  0  0  0  0  0  0  0  0  0  0
    3.2260   -0.1125    0.4632 N   0  0  0  0  0  0  0  0  0  0  0  0
    3.7798   -0.4007    1.7741 C   0  0  0  0  0  0  0  0  0  0  0  0
    3.5915    1.0210   -0.2536 C   0  0  0  0  0  0  0  0  0  0  0  0
    2.9625    1.3727   -1.4682 C   0  0  0  0  0  0  0  0  0  0  0  0
    3.3579    2.4725   -2.2388 C   0  0  0  0  0  0  0  0  0  0  0  0
    4.4204    3.2701   -1.8268 C   0  0  0  0  0  0  0  0  0  0  0  0
    4.9036    4.2907   -2.7040 N   0  0  0  0  0  0  0  0  0  0  0  0
    6.1524    4.0084   -3.4226 C   0  0  0  0  0  0  0  0  0  0  0  0
    6.1717    2.6857   -4.1228 C   0  0  0  0  0  0  0  0  0  0  0  0
    6.9288    1.5482   -3.6868 C   0  0  0  0  0  0  0  0  0  0  0  0
    6.8806    0.5047   -4.5833 C   0  0  0  0  0  0  0  0  0  0  0  0
    5.8724    0.8519   -5.9174 S   0  0  0  0  0  0  0  0  0  0  0  0
    5.5248    2.4129   -5.3164 C   0  0  0  0  0  0  0  0  0  0  0  0
    4.4407    5.5979   -2.5019 C   0  0  0  0  0  0  0  0  0  0  0  0
    3.4261    5.8543   -1.8477 O   0  0  0  0  0  0  0  0  0  0  0  0
    5.2742    6.7398   -3.0383 C   0  0  0  0  0  0  0  0  0  0  0  0
    4.9933    7.1343   -4.4074 N   0  0  0  0  0  0  0  0  0  0  0  0
    6.0570    7.4765   -5.1725 N   0  0  0  0  0  0  0  0  0  0  0  0
    5.6922    8.5053   -5.9256 N   0  0  0  0  0  0  0  0  0  0  0  0
    4.3584    8.7271   -5.7209 C   0  0  0  0  0  0  0  0  0  0  0  0
    3.5128    9.7362   -6.2006 C   0  0  0  0  0  0  0  0  0  0  0  0
    2.1569    9.6883   -5.8550 C   0  0  0  0  0  0  0  0  0  0  0  0
    1.6537    8.6433   -5.0751 C   0  0  0  0  0  0  0  0  0  0  0  0
    2.4946    7.6583   -4.5431 C   0  0  0  0  0  0  0  0  0  0  0  0
    3.8526    7.7584   -4.8593 C   0  0  0  0  0  0  0  0  0  0  0  0
    5.0317    2.9941   -0.6087 C   0  0  0  0  0  0  0  0  0  0  0  0
    4.6174    1.8908    0.1625 C   0  0  0  0  0  0  0  0  0  0  0  0
    2.2141   -1.9819    0.5225 H   0  0  0  0  0  0  0  0  0  0  0  0
    2.6020   -1.4100   -1.0888 H   0  0  0  0  0  0  0  0  0  0  0  0
    1.2802   -0.6506   -0.1532 H   0  0  0  0  0  0  0  0  0  0  0  0
    3.3386   -1.3085    2.2184 H   0  0  0  0  0  0  0  0  0  0  0  0
    3.5762    0.4139    2.4784 H   0  0  0  0  0  0  0  0  0  0  0  0
    4.8609   -0.5732    1.7235 H   0  0  0  0  0  0  0  0  0  0  0  0
    2.1432    0.7730   -1.8532 H   0  0  0  0  0  0  0  0  0  0  0  0
    2.8512    2.6752   -3.1763 H   0  0  0  0  0  0  0  0  0  0  0  0
    6.9908    4.1099   -2.7216 H   0  0  0  0  0  0  0  0  0  0  0  0
    6.2967    4.7634   -4.2002 H   0  0  0  0  0  0  0  0  0  0  0  0
    7.5089    1.5123   -2.7724 H   0  0  0  0  0  0  0  0  0  0  0  0
    7.3916   -0.4459   -4.5189 H   0  0  0  0  0  0  0  0  0  0  0  0
    4.8798    3.0720   -5.8849 H   0  0  0  0  0  0  0  0  0  0  0  0
    6.3452    6.5308   -2.9421 H   0  0  0  0  0  0  0  0  0  0  0  0
    5.0938    7.6295   -2.4217 H   0  0  0  0  0  0  0  0  0  0  0  0
    3.9097   10.5428   -6.8072 H   0  0  0  0  0  0  0  0  0  0  0  0
    1.4878   10.4729   -6.2013 H   0  0  0  0  0  0  0  0  0  0  0  0
    0.5888    8.6085   -4.8518 H   0  0  0  0  0  0  0  0  0  0  0  0
    2.1016    6.8676   -3.9118 H   0  0  0  0  0  0  0  0  0  0  0  0
    5.8413    3.6189   -0.2357 H   0  0  0  0  0  0  0  0  0  0  0  0
    5.1391    1.7127    1.1009 H   0  0  0  0  0  0  0  0  0  0  0  0
  1  2  1  0  0  0  0
  1 29  1  0  0  0  0
  1 30  1  0  0  0  0
  1 31  1  0  0  0  0
  2  3  1  0  0  0  0
  2  4  1  0  0  0  0
  3 32  1  0  0  0  0
  3 33  1  0  0  0  0
  3 34  1  0  0  0  0
  4  5  1  0  0  0  0
  4 28  2  0  0  0  0
  5  6  2  0  0  0  0
  5 35  1  0  0  0  0
  6  7  1  0  0  0  0
  6 36  1  0  0  0  0
  7  8  1  0  0  0  0
  7 27  2  0  0  0  0
  8  9  1  0  0  0  0
  8 15  1  0  0  0  0
  9 10  1  0  0  0  0
  9 37  1  0  0  0  0
  9 38  1  0  0  0  0
 10 11  1  0  0  0  0
 10 14  2  0  0  0  0
 11 12  2  0  0  0  0
 11 39  1  0  0  0  0
 12 13  1  0  0  0  0
 12 40  1  0  0  0  0
 13 14  1  0  0  0  0
 14 41  1  0  0  0  0
 15 16  2  0  0  0  0
 15 17  1  0  0  0  0
 17 18  1  0  0  0  0
 17 42  1  0  0  0  0
 17 43  1  0  0  0  0
 18 19  1  0  0  0  0
 18 26  1  0  0  0  0
 19 20  2  0  0  0  0
 20 21  1  0  0  0  0
 21 22  1  0  0  0  0
 21 26  2  0  0  0  0
 22 23  2  0  0  0  0
 22 44  1  0  0  0  0
 23 24  1  0  0  0  0
 23 45  1  0  0  0  0
 24 25  2  0  0  0  0
 24 46  1  0  0  0  0
 25 26  1  0  0  0  0
 25 47  1  0  0  0  0
 27 28  1  0  0  0  0
 27 48  1  0  0  0  0
 28 49  1  0  0  0  0
M  END
$$$$
