
 OpenBabel07202414143D

 54 58  0  0  1  0  0  0  0  0999 V2000
    7.5894    1.4936    1.6462 C   0  0  0  0  0  0  0  0  0  0  0  0
    6.7122    1.3455    0.5134 N   0  0  0  0  0  0  0  0  0  0  0  0
    5.3651    1.1017    0.6707 C   0  0  0  0  0  0  0  0  0  0  0  0
    4.8383    0.9587    1.7703 O   0  0  0  0  0  0  0  0  0  0  0  0
    4.5657    0.9539   -0.6311 C   0  0  0  0  0  0  0  0  0  0  0  0
    5.0724    1.8109   -1.7304 N   0  0  0  0  0  0  0  0  0  0  0  0
    4.8931    3.2433   -1.4497 C   0  0  0  0  0  0  0  0  0  0  0  0
    3.5034    3.7951   -1.6851 C   0  0  0  0  0  0  0  0  0  0  0  0
    3.1796    5.0335   -1.0970 C   0  0  0  0  0  0  0  0  0  0  0  0
    1.9459    5.6395   -1.3268 C   0  0  0  0  0  0  0  0  0  0  0  0
    1.0216    5.0104   -2.1469 C   0  0  0  0  0  0  0  0  0  0  0  0
   -0.4980    5.7555   -2.4586 Cl  0  0  0  0  0  0  0  0  0  0  0  0
    1.3249    3.7850   -2.7402 C   0  0  0  0  0  0  0  0  0  0  0  0
    2.5747    3.1614   -2.5348 C   0  0  0  0  0  0  0  0  0  0  0  0
    2.9437    1.8490   -3.2383 C   0  0  3  0  0  0  0  0  0  0  0  0
    2.6701    1.9496   -4.7456 C   0  0  0  0  0  0  0  0  0  0  0  0
    1.3436    1.2545   -4.9862 C   0  0  0  0  0  0  0  0  0  0  0  0
    0.9458    0.6150   -3.7688 N   0  0  0  0  0  0  0  0  0  0  0  0
   -0.4023    0.1466   -3.4753 C   0  0  0  0  0  0  0  0  0  0  0  0
   -0.7115   -0.2275   -2.1540 C   0  0  0  0  0  0  0  0  0  0  0  0
   -1.9505   -0.4612   -1.6601 N   0  0  0  0  0  0  0  0  0  0  0  0
   -2.9734   -0.2177   -2.4875 C   0  0  0  0  0  0  0  0  0  0  0  0
   -2.8323    0.1908   -3.8072 C   0  0  0  0  0  0  0  0  0  0  0  0
   -3.9906    0.5541   -4.5208 C   0  0  0  0  0  0  0  0  0  0  0  0
   -3.9122    0.9904   -5.8339 C   0  0  0  0  0  0  0  0  0  0  0  0
   -2.7053    0.8745   -6.4942 C   0  0  0  0  0  0  0  0  0  0  0  0
   -1.5762    0.3977   -5.8116 C   0  0  0  0  0  0  0  0  0  0  0  0
   -0.4230   -0.3660   -6.8645 Cl  0  0  0  0  0  0  0  0  0  0  0  0
   -1.5334    0.2432   -4.3874 C   0  0  0  0  0  0  0  0  0  0  0  0
    1.9970    0.6953   -2.8323 C   0  0  0  0  0  0  0  0  0  0  0  0
    2.1193    0.0079   -1.8311 O   0  0  0  0  0  0  0  0  0  0  0  0
    4.4399    1.4749   -3.0231 C   0  0  0  0  0  0  0  0  0  0  0  0
    8.3606    2.2272    1.3990 H   0  0  0  0  0  0  0  0  0  0  0  0
    8.0505    0.5262    1.8519 H   0  0  0  0  0  0  0  0  0  0  0  0
    7.0383    1.8291    2.5294 H   0  0  0  0  0  0  0  0  0  0  0  0
    7.0737    1.3576   -0.4329 H   0  0  0  0  0  0  0  0  0  0  0  0
    3.5279    1.1887   -0.3844 H   0  0  0  0  0  0  0  0  0  0  0  0
    4.6494   -0.1027   -0.9174 H   0  0  0  0  0  0  0  0  0  0  0  0
    5.5788    3.8019   -2.1004 H   0  0  0  0  0  0  0  0  0  0  0  0
    5.2055    3.4759   -0.4248 H   0  0  0  0  0  0  0  0  0  0  0  0
    3.9015    5.5400   -0.4582 H   0  0  0  0  0  0  0  0  0  0  0  0
    1.7179    6.5976   -0.8684 H   0  0  0  0  0  0  0  0  0  0  0  0
    0.5707    3.3342   -3.3783 H   0  0  0  0  0  0  0  0  0  0  0  0
    3.4430    1.4377   -5.3342 H   0  0  0  0  0  0  0  0  0  0  0  0
    2.6457    2.9799   -5.1208 H   0  0  0  0  0  0  0  0  0  0  0  0
    1.5610    0.4685   -5.7077 H   0  0  0  0  0  0  0  0  0  0  0  0
    0.5912    1.9543   -5.3547 H   0  0  0  0  0  0  0  0  0  0  0  0
    0.0362   -0.3142   -1.3734 H   0  0  0  0  0  0  0  0  0  0  0  0
   -3.9529   -0.3619   -2.0356 H   0  0  0  0  0  0  0  0  0  0  0  0
   -4.9682    0.5310   -4.0401 H   0  0  0  0  0  0  0  0  0  0  0  0
   -4.7990    1.3305   -6.3609 H   0  0  0  0  0  0  0  0  0  0  0  0
   -2.6575    1.0790   -7.5612 H   0  0  0  0  0  0  0  0  0  0  0  0
    5.0340    2.0070   -3.7821 H   0  0  0  0  0  0  0  0  0  0  0  0
    4.6031    0.4117   -3.2447 H   0  0  0  0  0  0  0  0  0  0  0  0
  1  2  1  0  0  0  0
  1 33  1  0  0  0  0
  1 34  1  0  0  0  0
  1 35  1  0  0  0  0
  2  3  1  0  0  0  0
  2 36  1  0  0  0  0
  3  4  2  0  0  0  0
  3  5  1  0  0  0  0
  5  6  1  0  0  0  0
  5 37  1  0  0  0  0
  5 38  1  0  0  0  0
  6  7  1  0  0  0  0
  6 32  1  0  0  0  0
  7  8  1  0  0  0  0
  7 39  1  0  0  0  0
  7 40  1  0  0  0  0
  8  9  1  0  0  0  0
  8 14  2  0  0  0  0
  9 10  2  0  0  0  0
  9 41  1  0  0  0  0
 10 11  1  0  0  0  0
 10 42  1  0  0  0  0
 11 12  1  0  0  0  0
 11 13  2  0  0  0  0
 13 14  1  0  0  0  0
 13 43  1  0  0  0  0
 14 15  1  0  0  0  0
 15 16  1  0  0  0  0
 15 30  1  0  0  0  0
 15 32  1  0  0  0  0
 16 17  1  0  0  0  0
 16 44  1  0  0  0  0
 16 45  1  0  0  0  0
 17 18  1  0  0  0  0
 17 46  1  0  0  0  0
 17 47  1  0  0  0  0
 18 19  1  0  0  0  0
 18 30  1  0  0  0  0
 19 20  1  0  0  0  0
 19 29  2  0  0  0  0
 20 21  2  0  0  0  0
 20 48  1  0  0  0  0
 21 22  1  0  0  0  0
 22 23  2  0  0  0  0
 22 49  1  0  0  0  0
 23 24  1  0  0  0  0
 23 29  1  0  0  0  0
 24 25  2  0  0  0  0
 24 50  1  0  0  0  0
 25 26  1  0  0  0  0
 25 51  1  0  0  0  0
 26 27  2  0  0  0  0
 26 52  1  0  0  0  0
 27 28  1  0  0  0  0
 27 29  1  0  0  0  0
 30 31  2  0  0  0  0
 32 53  1  0  0  0  0
 32 54  1  0  0  0  0
M  END
$$$$
