
 OpenBabel07202414133D

 44 45  0  0  0  0  0  0  0  0999 V2000
    1.2152   -2.5931    0.6706 C   0  0  0  0  0  0  0  0  0  0  0  0
    2.7246   -2.5839    0.4962 C   0  0  0  0  0  0  0  0  0  0  0  0
    3.1384   -1.9838   -0.8490 C   0  0  0  0  0  0  0  0  0  0  0  0
    4.6572   -1.9603   -0.9890 C   0  0  0  0  0  0  0  0  0  0  0  0
    5.0229   -1.3713   -2.2438 O   0  0  0  0  0  0  0  0  0  0  0  0
    6.3650   -1.3979   -2.5443 C   0  0  0  0  0  0  0  0  0  0  0  0
    7.3612   -1.7914   -1.6342 C   0  0  0  0  0  0  0  0  0  0  0  0
    8.7085   -1.7935   -2.0009 C   0  0  0  0  0  0  0  0  0  0  0  0
    9.0725   -1.3764   -3.2742 C   0  0  0  0  0  0  0  0  0  0  0  0
    8.1012   -0.9688   -4.1833 C   0  0  0  0  0  0  0  0  0  0  0  0
    6.7345   -0.9964   -3.8441 C   0  0  0  0  0  0  0  0  0  0  0  0
    5.7203   -0.6467   -4.9132 C   0  0  0  0  0  0  0  0  0  0  0  0
    5.4706    0.8384   -5.0984 C   0  0  0  0  0  0  0  0  0  0  0  0
    5.9878    1.4723   -6.0140 O   0  0  0  0  0  0  0  0  0  0  0  0
    4.6312    1.3738   -4.1398 N   0  0  0  0  0  0  0  0  0  0  0  0
    4.2226    2.7248   -4.1284 C   0  0  0  0  0  0  0  0  0  0  0  0
    3.8507    3.4072   -5.2889 C   0  0  0  0  0  0  0  0  0  0  0  0
    3.4198    4.6940   -5.3131 N   0  0  0  0  0  0  0  0  0  0  0  0
    3.3914    5.3416   -4.1322 C   0  0  0  0  0  0  0  0  0  0  0  0
    3.7550    4.7605   -2.9266 C   0  0  0  0  0  0  0  0  0  0  0  0
    4.1634    3.4204   -2.9135 C   0  0  0  0  0  0  0  0  0  0  0  0
    4.6580    2.8101   -1.6344 C   0  0  0  0  0  0  0  0  0  0  0  0
   10.7320   -1.3846   -3.7258 Cl  0  0  0  0  0  0  0  0  0  0  0  0
    0.9426   -3.1283    1.5859 H   0  0  0  0  0  0  0  0  0  0  0  0
    0.7233   -3.0883   -0.1722 H   0  0  0  0  0  0  0  0  0  0  0  0
    0.8270   -1.5727    0.7471 H   0  0  0  0  0  0  0  0  0  0  0  0
    3.1010   -3.6109    0.5749 H   0  0  0  0  0  0  0  0  0  0  0  0
    3.1761   -2.0140    1.3175 H   0  0  0  0  0  0  0  0  0  0  0  0
    2.7439   -0.9663   -0.9537 H   0  0  0  0  0  0  0  0  0  0  0  0
    2.7072   -2.5666   -1.6720 H   0  0  0  0  0  0  0  0  0  0  0  0
    5.0311   -2.9910   -0.9338 H   0  0  0  0  0  0  0  0  0  0  0  0
    5.0772   -1.3626   -0.1711 H   0  0  0  0  0  0  0  0  0  0  0  0
    7.1296   -2.1133   -0.6241 H   0  0  0  0  0  0  0  0  0  0  0  0
    9.4611   -2.1204   -1.2879 H   0  0  0  0  0  0  0  0  0  0  0  0
    8.4070   -0.6513   -5.1826 H   0  0  0  0  0  0  0  0  0  0  0  0
    4.7648   -1.1504   -4.7323 H   0  0  0  0  0  0  0  0  0  0  0  0
    6.0678   -1.0395   -5.8787 H   0  0  0  0  0  0  0  0  0  0  0  0
    4.5816    0.8551   -3.2707 H   0  0  0  0  0  0  0  0  0  0  0  0
    3.8529    2.9213   -6.2611 H   0  0  0  0  0  0  0  0  0  0  0  0
    3.0728    6.3794   -4.1792 H   0  0  0  0  0  0  0  0  0  0  0  0
    3.7410    5.3565   -2.0199 H   0  0  0  0  0  0  0  0  0  0  0  0
    4.4891    3.4717   -0.7798 H   0  0  0  0  0  0  0  0  0  0  0  0
    5.7360    2.6249   -1.7082 H   0  0  0  0  0  0  0  0  0  0  0  0
    4.1424    1.8680   -1.4250 H   0  0  0  0  0  0  0  0  0  0  0  0
  1  2  1  0  0  0  0
  1 24  1  0  0  0  0
  1 25  1  0  0  0  0
  1 26  1  0  0  0  0
  2  3  1  0  0  0  0
  2 27  1  0  0  0  0
  2 28  1  0  0  0  0
  3  4  1  0  0  0  0
  3 29  1  0  0  0  0
  3 30  1  0  0  0  0
  4  5  1  0  0  0  0
  4 31  1  0  0  0  0
  4 32  1  0  0  0  0
  5  6  1  0  0  0  0
  6  7  1  0  0  0  0
  6 11  2  0  0  0  0
  7  8  2  0  0  0  0
  7 33  1  0  0  0  0
  8  9  1  0  0  0  0
  8 34  1  0  0  0  0
  9 10  2  0  0  0  0
  9 23  1  0  0  0  0
 10 11  1  0  0  0  0
 10 35  1  0  0  0  0
 11 12  1  0  0  0  0
 12 13  1  0  0  0  0
 12 36  1  0  0  0  0
 12 37  1  0  0  0  0
 13 14  2  0  0  0  0
 13 15  1  0  0  0  0
 15 16  1  0  0  0  0
 15 38  1  0  0  0  0
 16 17  1  0  0  0  0
 16 21  2  0  0  0  0
 17 18  2  0  0  0  0
 17 39  1  0  0  0  0
 18 19  1  0  0  0  0
 19 20  2  0  0  0  0
 19 40  1  0  0  0  0
 20 21  1  0  0  0  0
 20 41  1  0  0  0  0
 21 22  1  0  0  0  0
 22 42  1  0  0  0  0
 22 43  1  0  0  0  0
 22 44  1  0  0  0  0
M  END
$$$$
