
 OpenBabel07202414133D

 67 71  0  0  1  0  0  0  0  0999 V2000
    3.1434   -4.9458    0.4550 C   0  0  0  0  0  0  0  0  0  0  0  0
    3.4642   -3.4671    0.2929 C   0  0  0  0  0  0  0  0  0  0  0  0
    4.0424   -3.2023   -1.0786 C   0  0  0  0  0  0  0  0  0  0  0  0
    4.2044   -4.0869   -1.9149 O   0  0  0  0  0  0  0  0  0  0  0  0
    4.4058   -1.8904   -1.3111 N   0  0  0  0  0  0  0  0  0  0  0  0
    4.9060   -1.5095   -2.6192 C   0  0  0  0  0  0  0  0  0  0  0  0
    6.4348   -1.6103   -2.7610 C   0  0  1  0  0  0  0  0  0  0  0  0
    7.0044   -3.0017   -2.4766 C   0  0  0  0  0  0  0  0  0  0  0  0
    8.2361   -3.0190   -3.2122 N   0  0  0  0  0  0  0  0  0  0  0  0
    9.2482   -3.9816   -2.9988 C   0  0  0  0  0  0  0  0  0  0  0  0
   10.5870   -3.5963   -2.7349 C   0  0  0  0  0  0  0  0  0  0  0  0
   11.5545   -4.6086   -2.5575 C   0  0  0  0  0  0  0  0  0  0  0  0
   11.1345   -5.9377   -2.6569 C   0  0  0  0  0  0  0  0  0  0  0  0
    9.8607   -6.3304   -2.8869 N   0  0  0  0  0  0  0  0  0  0  0  0
    8.9495   -5.3433   -3.0456 C   0  0  0  0  0  0  0  0  0  0  0  0
   12.8908   -4.2683   -2.2719 C   0  0  0  0  0  0  0  0  0  0  0  0
   13.2766   -2.9340   -2.1448 C   0  0  0  0  0  0  0  0  0  0  0  0
   12.3357   -1.9261   -2.3008 C   0  0  0  0  0  0  0  0  0  0  0  0
   11.0109   -2.2541   -2.5856 C   0  0  0  0  0  0  0  0  0  0  0  0
    8.2751   -2.0817   -4.2374 C   0  0  0  0  0  0  0  0  0  0  0  0
    9.1550   -1.9587   -5.0762 O   0  0  0  0  0  0  0  0  0  0  0  0
    6.9936   -1.2545   -4.1891 C   0  0  1  0  0  0  0  0  0  0  0  0
    6.0493   -1.6846   -5.3211 C   0  0  0  0  0  0  0  0  0  0  0  0
    6.5561   -1.2189   -6.6750 C   0  0  0  0  0  0  0  0  0  0  0  0
    6.6940    0.2979   -6.6959 C   0  0  0  0  0  0  0  0  0  0  0  0
    7.5996    0.8210   -5.6233 N   0  0  0  0  0  0  0  0  0  0  0  0
    7.6535    2.5744   -5.6217 S   0  0  0  0  0  0  0  0  0  0  0  0
    7.4640    3.0224   -6.9895 O   0  0  0  0  0  0  0  0  0  0  0  0
    6.7390    2.9815   -4.5847 O   0  0  0  0  0  0  0  0  0  0  0  0
    9.3625    2.9519   -5.1538 C   0  0  0  0  0  0  0  0  0  0  0  0
    9.4932    4.4634   -4.9690 C   0  0  0  0  0  0  0  0  0  0  0  0
    8.6160    5.0027   -3.9577 C   0  0  0  0  0  0  0  0  0  0  0  0
    7.9566    5.4977   -3.1526 N   0  0  0  0  0  0  0  0  0  0  0  0
   10.9458    4.9426   -4.8702 C   0  0  0  0  0  0  0  0  0  0  0  0
   10.0651    5.5509   -5.9073 C   0  0  0  0  0  0  0  0  0  0  0  0
    7.3395    0.2429   -4.2529 C   0  0  0  0  0  0  0  0  0  0  0  0
    2.7556   -5.1541    1.4551 H   0  0  0  0  0  0  0  0  0  0  0  0
    4.0381   -5.5598    0.2988 H   0  0  0  0  0  0  0  0  0  0  0  0
    2.3953   -5.2650   -0.2794 H   0  0  0  0  0  0  0  0  0  0  0  0
    4.1984   -3.1642    1.0471 H   0  0  0  0  0  0  0  0  0  0  0  0
    2.5556   -2.8705    0.4245 H   0  0  0  0  0  0  0  0  0  0  0  0
    3.9694   -1.1761   -0.7376 H   0  0  0  0  0  0  0  0  0  0  0  0
    4.5809   -0.4784   -2.8010 H   0  0  0  0  0  0  0  0  0  0  0  0
    4.4024   -2.1437   -3.3546 H   0  0  0  0  0  0  0  0  0  0  0  0
    6.8852   -0.9209   -2.0293 H   0  0  0  0  0  0  0  0  0  0  0  0
    6.3731   -3.8139   -2.8360 H   0  0  0  0  0  0  0  0  0  0  0  0
    7.2145   -3.1235   -1.4061 H   0  0  0  0  0  0  0  0  0  0  0  0
   11.8401   -6.7570   -2.5379 H   0  0  0  0  0  0  0  0  0  0  0  0
    7.9470   -5.6968   -3.2716 H   0  0  0  0  0  0  0  0  0  0  0  0
   13.6405   -5.0451   -2.1372 H   0  0  0  0  0  0  0  0  0  0  0  0
   14.3090   -2.6814   -1.9198 H   0  0  0  0  0  0  0  0  0  0  0  0
   12.6239   -0.8830   -2.2041 H   0  0  0  0  0  0  0  0  0  0  0  0
   10.3025   -1.4384   -2.6923 H   0  0  0  0  0  0  0  0  0  0  0  0
    5.0587   -1.2340   -5.1825 H   0  0  0  0  0  0  0  0  0  0  0  0
    5.9075   -2.7723   -5.3305 H   0  0  0  0  0  0  0  0  0  0  0  0
    5.8417   -1.5294   -7.4482 H   0  0  0  0  0  0  0  0  0  0  0  0
    7.5044   -1.7047   -6.9247 H   0  0  0  0  0  0  0  0  0  0  0  0
    5.7030    0.7528   -6.5894 H   0  0  0  0  0  0  0  0  0  0  0  0
    7.1047    0.5764   -7.6725 H   0  0  0  0  0  0  0  0  0  0  0  0
   10.0383    2.5346   -5.9042 H   0  0  0  0  0  0  0  0  0  0  0  0
    9.5350    2.4733   -4.1835 H   0  0  0  0  0  0  0  0  0  0  0  0
   11.7702    4.3570   -5.2652 H   0  0  0  0  0  0  0  0  0  0  0  0
   11.2107    5.4969   -3.9732 H   0  0  0  0  0  0  0  0  0  0  0  0
   10.3254    5.3829   -6.9454 H   0  0  0  0  0  0  0  0  0  0  0  0
    9.7621    6.5877   -5.7305 H   0  0  0  0  0  0  0  0  0  0  0  0
    6.4971    0.7754   -3.8018 H   0  0  0  0  0  0  0  0  0  0  0  0
    8.2314    0.4377   -3.6430 H   0  0  0  0  0  0  0  0  0  0  0  0
  1  2  1  0  0  0  0
  1 37  1  0  0  0  0
  1 38  1  0  0  0  0
  1 39  1  0  0  0  0
  2  3  1  0  0  0  0
  2 40  1  0  0  0  0
  2 41  1  0  0  0  0
  3  4  2  0  0  0  0
  3  5  1  0  0  0  0
  5  6  1  0  0  0  0
  5 42  1  0  0  0  0
  6  7  1  0  0  0  0
  6 43  1  0  0  0  0
  6 44  1  0  0  0  0
  7  8  1  0  0  0  0
  7 22  1  0  0  0  0
  7 45  1  1  0  0  0
  8  9  1  0  0  0  0
  8 46  1  0  0  0  0
  8 47  1  0  0  0  0
  9 10  1  0  0  0  0
  9 20  1  0  0  0  0
 10 11  2  0  0  0  0
 10 15  1  0  0  0  0
 11 12  1  0  0  0  0
 11 19  1  0  0  0  0
 12 13  2  0  0  0  0
 12 16  1  0  0  0  0
 13 14  1  0  0  0  0
 13 48  1  0  0  0  0
 14 15  2  0  0  0  0
 15 49  1  0  0  0  0
 16 17  2  0  0  0  0
 16 50  1  0  0  0  0
 17 18  1  0  0  0  0
 17 51  1  0  0  0  0
 18 19  2  0  0  0  0
 18 52  1  0  0  0  0
 19 53  1  0  0  0  0
 20 21  2  0  0  0  0
 22 20  1  6  0  0  0
 22 23  1  0  0  0  0
 22 36  1  0  0  0  0
 23 24  1  0  0  0  0
 23 54  1  0  0  0  0
 23 55  1  0  0  0  0
 24 25  1  0  0  0  0
 24 56  1  0  0  0  0
 24 57  1  0  0  0  0
 25 26  1  0  0  0  0
 25 58  1  0  0  0  0
 25 59  1  0  0  0  0
 26 27  1  0  0  0  0
 26 36  1  0  0  0  0
 27 28  2  0  0  0  0
 27 29  2  0  0  0  0
 27 30  1  0  0  0  0
 30 31  1  0  0  0  0
 30 60  1  0  0  0  0
 30 61  1  0  0  0  0
 31 32  1  0  0  0  0
 31 34  1  0  0  0  0
 31 35  1  0  0  0  0
 32 33  3  0  0  0  0
 34 35  1  0  0  0  0
 34 62  1  0  0  0  0
 34 63  1  0  0  0  0
 35 64  1  0  0  0  0
 35 65  1  0  0  0  0
 36 66  1  0  0  0  0
 36 67  1  0  0  0  0
M  END
$$$$
