
 OpenBabel07202414183D

 39 42  0  0  1  0  0  0  0  0999 V2000
    2.5968  -12.8870    0.2553 F   0  0  0  0  0  0  0  0  0  0  0  0
    1.7197  -11.8997    0.0356 C   0  0  0  0  0  0  0  0  0  0  0  0
    0.3845  -12.2217   -0.1325 C   0  0  0  0  0  0  0  0  0  0  0  0
   -0.5187  -11.1776   -0.3466 C   0  0  0  0  0  0  0  0  0  0  0  0
   -0.0729   -9.8412   -0.4024 C   0  0  0  0  0  0  0  0  0  0  0  0
   -0.9873   -8.8155   -0.6040 C   0  0  0  0  0  0  0  0  0  0  0  0
   -0.6546   -7.5129   -0.6751 N   0  0  0  0  0  0  0  0  0  0  0  0
    0.6606   -7.2001   -0.5400 C   0  0  0  0  0  0  0  0  0  0  0  0
    1.6921   -8.1215   -0.3329 C   0  0  0  0  0  0  0  0  0  0  0  0
    3.0766   -7.7392   -0.1975 N   0  0  0  0  0  0  0  0  0  0  0  0
    3.6135   -6.4599   -0.2772 C   0  0  0  0  0  0  0  0  0  0  0  0
    2.9237   -5.4582   -0.4814 O   0  0  0  0  0  0  0  0  0  0  0  0
    5.1532   -6.2637   -0.0413 C   0  0  2  0  0  0  0  0  0  0  0  0
    6.0684   -7.4480   -0.4221 C   0  0  0  0  0  0  0  0  0  0  0  0
    7.3395   -7.6019    0.4171 C   0  0  0  0  0  0  0  0  0  0  0  0
    7.7882   -6.4058    1.0309 O   0  0  0  0  0  0  0  0  0  0  0  0
    6.8087   -5.8770    1.8231 C   0  0  0  0  0  0  0  0  0  0  0  0
    7.1867   -5.4547    3.0961 C   0  0  0  0  0  0  0  0  0  0  0  0
    6.2661   -4.7777    3.8794 C   0  0  0  0  0  0  0  0  0  0  0  0
    6.6066   -4.4394    5.1319 F   0  0  0  0  0  0  0  0  0  0  0  0
    5.0195   -4.4412    3.3594 C   0  0  0  0  0  0  0  0  0  0  0  0
    3.9255   -3.4788    4.2765 Cl  0  0  0  0  0  0  0  0  0  0  0  0
    4.6475   -4.8818    2.0820 C   0  0  0  0  0  0  0  0  0  0  0  0
    5.5104   -5.6911    1.3263 C   0  0  0  0  0  0  0  0  0  0  0  0
    1.3036   -9.4999   -0.2522 C   0  0  0  0  0  0  0  0  0  0  0  0
    2.1823  -10.5852   -0.0222 C   0  0  0  0  0  0  0  0  0  0  0  0
    0.0529  -13.2492   -0.0867 H   0  0  0  0  0  0  0  0  0  0  0  0
   -1.5734  -11.4248   -0.4750 H   0  0  0  0  0  0  0  0  0  0  0  0
   -2.0508   -9.0112   -0.7221 H   0  0  0  0  0  0  0  0  0  0  0  0
    0.8328   -6.1333   -0.6144 H   0  0  0  0  0  0  0  0  0  0  0  0
    3.7130   -8.5055   -0.0710 H   0  0  0  0  0  0  0  0  0  0  0  0
    5.4175   -5.4639   -0.7531 H   0  0  0  0  0  0  0  0  0  0  0  0
    6.3647   -7.3158   -1.4712 H   0  0  0  0  0  0  0  0  0  0  0  0
    5.5666   -8.4170   -0.4038 H   0  0  0  0  0  0  0  0  0  0  0  0
    8.1573   -7.9640   -0.2174 H   0  0  0  0  0  0  0  0  0  0  0  0
    7.2049   -8.3594    1.2000 H   0  0  0  0  0  0  0  0  0  0  0  0
    8.1815   -5.6571    3.4795 H   0  0  0  0  0  0  0  0  0  0  0  0
    3.6850   -4.5670    1.6841 H   0  0  0  0  0  0  0  0  0  0  0  0
    3.2453  -10.4428    0.1298 H   0  0  0  0  0  0  0  0  0  0  0  0
  1  2  1  0  0  0  0
  2  3  1  0  0  0  0
  2 26  2  0  0  0  0
  3  4  2  0  0  0  0
  3 27  1  0  0  0  0
  4  5  1  0  0  0  0
  4 28  1  0  0  0  0
  5  6  1  0  0  0  0
  5 25  2  0  0  0  0
  6  7  2  0  0  0  0
  6 29  1  0  0  0  0
  7  8  1  0  0  0  0
  8  9  2  0  0  0  0
  8 30  1  0  0  0  0
  9 10  1  0  0  0  0
  9 25  1  0  0  0  0
 10 11  1  0  0  0  0
 10 31  1  0  0  0  0
 11 12  2  0  0  0  0
 13 14  1  0  0  0  0
 13 24  1  0  0  0  0
 13 11  1  0  0  0  0
 13 32  1  6  0  0  0
 14 15  1  0  0  0  0
 14 33  1  0  0  0  0
 14 34  1  0  0  0  0
 15 16  1  0  0  0  0
 15 35  1  0  0  0  0
 15 36  1  0  0  0  0
 16 17  1  0  0  0  0
 17 18  1  0  0  0  0
 17 24  2  0  0  0  0
 18 19  2  0  0  0  0
 18 37  1  0  0  0  0
 19 20  1  0  0  0  0
 19 21  1  0  0  0  0
 21 22  1  0  0  0  0
 21 23  2  0  0  0  0
 23 24  1  0  0  0  0
 23 38  1  0  0  0  0
 25 26  1  0  0  0  0
 26 39  1  0  0  0  0
M  END
$$$$
