
 OpenBabel07202414183D

 33 35  0  0  0  0  0  0  0  0999 V2000
   -0.0248   -4.2030   -4.6396 Cl  0  0  0  0  0  0  0  0  0  0  0  0
    1.0103   -4.4541   -3.2878 C   0  0  0  0  0  0  0  0  0  0  0  0
    1.4900   -5.7270   -3.0183 C   0  0  0  0  0  0  0  0  0  0  0  0
    2.3114   -5.8775   -1.9199 C   0  0  0  0  0  0  0  0  0  0  0  0
    2.6667   -4.8591   -1.1012 N   0  0  0  0  0  0  0  0  0  0  0  0
    2.1617   -3.6238   -1.3702 C   0  0  0  0  0  0  0  0  0  0  0  0
    2.4639   -2.5279   -0.3768 C   0  0  0  0  0  0  0  0  0  0  0  0
    3.9300   -2.1705   -0.2472 C   0  0  0  0  0  0  0  0  0  0  0  0
    4.2875   -0.9933   -0.2199 O   0  0  0  0  0  0  0  0  0  0  0  0
    4.7822   -3.2505   -0.1194 N   0  0  0  0  0  0  0  0  0  0  0  0
    6.1814   -3.1251    0.0293 C   0  0  0  0  0  0  0  0  0  0  0  0
    6.7312   -2.1804    0.8987 C   0  0  0  0  0  0  0  0  0  0  0  0
    8.0548   -2.0396    1.1369 N   0  0  0  0  0  0  0  0  0  0  0  0
    8.8750   -2.8544    0.4402 C   0  0  0  0  0  0  0  0  0  0  0  0
    8.4491   -3.8139   -0.4811 C   0  0  0  0  0  0  0  0  0  0  0  0
    9.3662   -4.5877   -1.2144 C   0  0  0  0  0  0  0  0  0  0  0  0
    8.9260   -5.5023   -2.1683 C   0  0  0  0  0  0  0  0  0  0  0  0
    7.5649   -5.6643   -2.3912 C   0  0  0  0  0  0  0  0  0  0  0  0
    6.6418   -4.9148   -1.6583 C   0  0  0  0  0  0  0  0  0  0  0  0
    7.0591   -3.9712   -0.6877 C   0  0  0  0  0  0  0  0  0  0  0  0
    1.3397   -3.3803   -2.4636 C   0  0  0  0  0  0  0  0  0  0  0  0
    1.2272   -6.5769   -3.6365 H   0  0  0  0  0  0  0  0  0  0  0  0
    2.7116   -6.8514   -1.6515 H   0  0  0  0  0  0  0  0  0  0  0  0
    2.0997   -2.8286    0.6110 H   0  0  0  0  0  0  0  0  0  0  0  0
    1.9248   -1.6154   -0.6549 H   0  0  0  0  0  0  0  0  0  0  0  0
    4.4099   -4.1382   -0.4516 H   0  0  0  0  0  0  0  0  0  0  0  0
    6.1004   -1.5153    1.4821 H   0  0  0  0  0  0  0  0  0  0  0  0
    9.9319   -2.6956    0.6386 H   0  0  0  0  0  0  0  0  0  0  0  0
   10.4381   -4.4607   -1.0619 H   0  0  0  0  0  0  0  0  0  0  0  0
    9.6440   -6.0746   -2.7463 H   0  0  0  0  0  0  0  0  0  0  0  0
    7.2148   -6.3607   -3.1499 H   0  0  0  0  0  0  0  0  0  0  0  0
    5.5891   -5.0503   -1.8895 H   0  0  0  0  0  0  0  0  0  0  0  0
    0.9471   -2.3924   -2.6636 H   0  0  0  0  0  0  0  0  0  0  0  0
  1  2  1  0  0  0  0
  2  3  1  0  0  0  0
  2 21  2  0  0  0  0
  3  4  2  0  0  0  0
  3 22  1  0  0  0  0
  4  5  1  0  0  0  0
  4 23  1  0  0  0  0
  5  6  2  0  0  0  0
  6  7  1  0  0  0  0
  6 21  1  0  0  0  0
  7  8  1  0  0  0  0
  7 24  1  0  0  0  0
  7 25  1  0  0  0  0
  8  9  2  0  0  0  0
  8 10  1  0  0  0  0
 10 11  1  0  0  0  0
 10 26  1  0  0  0  0
 11 12  1  0  0  0  0
 11 20  2  0  0  0  0
 12 13  2  0  0  0  0
 12 27  1  0  0  0  0
 13 14  1  0  0  0  0
 14 15  2  0  0  0  0
 14 28  1  0  0  0  0
 15 16  1  0  0  0  0
 15 20  1  0  0  0  0
 16 17  2  0  0  0  0
 16 29  1  0  0  0  0
 17 18  1  0  0  0  0
 17 30  1  0  0  0  0
 18 19  2  0  0  0  0
 18 31  1  0  0  0  0
 19 20  1  0  0  0  0
 19 32  1  0  0  0  0
 21 33  1  0  0  0  0
M  END
$$$$
