
 OpenBabel07202414113D

 41 43  0  0  0  0  0  0  0  0999 V2000
    0.8430    0.2362    0.0287 C   0  0  0  0  0  0  0  0  0  0  0  0
    2.2961   -0.0623   -0.2021 C   0  0  0  0  0  0  0  0  0  0  0  0
    2.6522   -1.1936   -0.5158 O   0  0  0  0  0  0  0  0  0  0  0  0
    3.1181    1.0439   -0.0260 N   0  0  0  0  0  0  0  0  0  0  0  0
    4.5150    1.0605   -0.2366 C   0  0  0  0  0  0  0  0  0  0  0  0
    5.1644    0.0686   -0.9652 C   0  0  0  0  0  0  0  0  0  0  0  0
    6.5508    0.0711   -1.0887 C   0  0  0  0  0  0  0  0  0  0  0  0
    7.3431    1.0710   -0.4997 C   0  0  0  0  0  0  0  0  0  0  0  0
    8.7523    1.1026   -0.6022 C   0  0  0  0  0  0  0  0  0  0  0  0
    9.4471    0.0287   -1.2118 N   0  0  0  0  0  0  0  0  0  0  0  0
   10.5295    0.1984   -2.0557 C   0  0  0  0  0  0  0  0  0  0  0  0
   10.9955    1.2866   -2.3896 O   0  0  0  0  0  0  0  0  0  0  0  0
   11.0951   -1.1110   -2.5836 C   0  0  0  0  0  0  0  0  0  0  0  0
   10.2788   -1.7315   -3.6948 C   0  0  0  0  0  0  0  0  0  0  0  0
   10.0750   -1.0466   -4.9021 C   0  0  0  0  0  0  0  0  0  0  0  0
    9.3415   -1.6305   -5.9387 C   0  0  0  0  0  0  0  0  0  0  0  0
    8.8073   -2.9092   -5.7855 C   0  0  0  0  0  0  0  0  0  0  0  0
    9.0141   -3.6013   -4.5962 C   0  0  0  0  0  0  0  0  0  0  0  0
    8.3702   -5.1848   -4.4044 Cl  0  0  0  0  0  0  0  0  0  0  0  0
    9.7459   -3.0236   -3.5552 C   0  0  0  0  0  0  0  0  0  0  0  0
    9.4262    2.1862   -0.0423 C   0  0  0  0  0  0  0  0  0  0  0  0
    8.8186    3.2000    0.6176 N   0  0  0  0  0  0  0  0  0  0  0  0
    7.4704    3.1428    0.7050 C   0  0  0  0  0  0  0  0  0  0  0  0
    6.6789    2.1183    0.1767 C   0  0  0  0  0  0  0  0  0  0  0  0
    5.2689    2.1120    0.2907 C   0  0  0  0  0  0  0  0  0  0  0  0
    0.2832   -0.7060    0.0524 H   0  0  0  0  0  0  0  0  0  0  0  0
    0.4585    0.8528   -0.7872 H   0  0  0  0  0  0  0  0  0  0  0  0
    0.7040    0.7424    0.9866 H   0  0  0  0  0  0  0  0  0  0  0  0
    2.7093    1.8631    0.4055 H   0  0  0  0  0  0  0  0  0  0  0  0
    4.6186   -0.7231   -1.4714 H   0  0  0  0  0  0  0  0  0  0  0  0
    6.9845   -0.7243   -1.6932 H   0  0  0  0  0  0  0  0  0  0  0  0
    8.9612   -0.8556   -1.2848 H   0  0  0  0  0  0  0  0  0  0  0  0
   11.1871   -1.8063   -1.7390 H   0  0  0  0  0  0  0  0  0  0  0  0
   12.1144   -0.9281   -2.9412 H   0  0  0  0  0  0  0  0  0  0  0  0
   10.4954   -0.0519   -5.0497 H   0  0  0  0  0  0  0  0  0  0  0  0
    9.1957   -1.0885   -6.8693 H   0  0  0  0  0  0  0  0  0  0  0  0
    8.2384   -3.3600   -6.5949 H   0  0  0  0  0  0  0  0  0  0  0  0
    9.9131   -3.5921   -2.6435 H   0  0  0  0  0  0  0  0  0  0  0  0
   10.5110    2.2501   -0.0621 H   0  0  0  0  0  0  0  0  0  0  0  0
    7.0268    3.9839    1.2323 H   0  0  0  0  0  0  0  0  0  0  0  0
    4.7761    2.9230    0.8203 H   0  0  0  0  0  0  0  0  0  0  0  0
  1  2  1  0  0  0  0
  1 26  1  0  0  0  0
  1 27  1  0  0  0  0
  1 28  1  0  0  0  0
  2  3  2  0  0  0  0
  2  4  1  0  0  0  0
  4  5  1  0  0  0  0
  4 29  1  0  0  0  0
  5  6  1  0  0  0  0
  5 25  2  0  0  0  0
  6  7  2  0  0  0  0
  6 30  1  0  0  0  0
  7  8  1  0  0  0  0
  7 31  1  0  0  0  0
  8  9  1  0  0  0  0
  8 24  2  0  0  0  0
  9 10  1  0  0  0  0
  9 21  2  0  0  0  0
 10 11  1  0  0  0  0
 10 32  1  0  0  0  0
 11 12  2  0  0  0  0
 11 13  1  0  0  0  0
 13 14  1  0  0  0  0
 13 33  1  0  0  0  0
 13 34  1  0  0  0  0
 14 15  1  0  0  0  0
 14 20  2  0  0  0  0
 15 16  2  0  0  0  0
 15 35  1  0  0  0  0
 16 17  1  0  0  0  0
 16 36  1  0  0  0  0
 17 18  2  0  0  0  0
 17 37  1  0  0  0  0
 18 19  1  0  0  0  0
 18 20  1  0  0  0  0
 20 38  1  0  0  0  0
 21 22  1  0  0  0  0
 21 39  1  0  0  0  0
 22 23  2  0  0  0  0
 23 24  1  0  0  0  0
 23 40  1  0  0  0  0
 24 25  1  0  0  0  0
 25 41  1  0  0  0  0
M  END
$$$$
