
 OpenBabel07202414173D

 56 60  0  0  1  0  0  0  0  0999 V2000
   10.0723   -1.8014   -0.1406 Cl  0  0  0  0  0  0  0  0  0  0  0  0
    8.6905   -2.8034   -0.3515 C   0  0  0  0  0  0  0  0  0  0  0  0
    8.7567   -3.8969   -1.2114 C   0  0  0  0  0  0  0  0  0  0  0  0
    7.6294   -4.6966   -1.3963 C   0  0  0  0  0  0  0  0  0  0  0  0
    6.4371   -4.3988   -0.7302 C   0  0  0  0  0  0  0  0  0  0  0  0
    6.3694   -3.3070    0.1443 C   0  0  0  0  0  0  0  0  0  0  0  0
    7.5108   -2.5124    0.3353 C   0  0  0  0  0  0  0  0  0  0  0  0
    5.0649   -2.9553    0.8280 C   0  0  3  0  0  0  0  0  0  0  0  0
    4.9122   -3.4271    2.2917 C   0  0  0  0  0  0  0  0  0  0  0  0
    4.1266   -2.8462    3.0397 O   0  0  0  0  0  0  0  0  0  0  0  0
    5.6468   -4.5414    2.6430 N   0  0  0  0  0  0  0  0  0  0  0  0
    5.8309   -5.1133    3.9384 C   0  0  0  0  0  0  0  0  0  0  0  0
    5.2746   -4.5747    5.0992 C   0  0  0  0  0  0  0  0  0  0  0  0
    5.5501   -5.0076    6.3544 N   0  0  0  0  0  0  0  0  0  0  0  0
    6.4054   -6.0457    6.4646 C   0  0  0  0  0  0  0  0  0  0  0  0
    6.9608   -6.7276    5.3828 C   0  0  0  0  0  0  0  0  0  0  0  0
    7.7896   -7.8541    5.5677 C   0  0  0  0  0  0  0  0  0  0  0  0
    8.3734   -8.5043    4.4770 C   0  0  0  0  0  0  0  0  0  0  0  0
    8.1598   -8.0312    3.1805 C   0  0  0  0  0  0  0  0  0  0  0  0
    8.8361   -8.6609    1.9817 C   0  0  0  0  0  0  0  0  0  0  0  0
   10.1077   -8.0957    1.5136 N   0  0  0  0  0  0  0  0  0  0  0  0
   11.2248   -8.1522    2.4594 C   0  0  0  0  0  0  0  0  0  0  0  0
   11.3352   -6.9512    3.4260 C   0  0  0  0  0  0  0  0  0  0  0  0
   11.2800   -5.6326    2.7796 N   0  0  0  0  0  0  0  0  0  0  0  0
   10.1816   -5.5592    1.8066 C   0  0  0  0  0  0  0  0  0  0  0  0
   10.0472   -6.7804    0.8699 C   0  0  0  0  0  0  0  0  0  0  0  0
    7.2814   -6.9503    3.0025 C   0  0  0  0  0  0  0  0  0  0  0  0
    6.6803   -6.2514    4.0823 C   0  0  0  0  0  0  0  0  0  0  0  0
    3.9266   -3.4607   -0.0555 C   0  0  0  0  0  0  0  0  0  0  0  0
    4.1345   -4.9296   -0.3868 C   0  0  0  0  0  0  0  0  0  0  0  0
    5.3825   -5.2113   -1.0257 O   0  0  0  0  0  0  0  0  0  0  0  0
    9.6767   -4.1285   -1.7426 H   0  0  0  0  0  0  0  0  0  0  0  0
    7.6728   -5.5439   -2.0774 H   0  0  0  0  0  0  0  0  0  0  0  0
    7.4733   -1.6472    0.9944 H   0  0  0  0  0  0  0  0  0  0  0  0
    4.9967   -1.8598    0.8631 H   0  0  0  0  0  0  0  0  0  0  0  0
    6.1901   -4.9486    1.9022 H   0  0  0  0  0  0  0  0  0  0  0  0
    4.5753   -3.7449    5.0817 H   0  0  0  0  0  0  0  0  0  0  0  0
    6.6427   -6.3223    7.4893 H   0  0  0  0  0  0  0  0  0  0  0  0
    7.9864   -8.2321    6.5696 H   0  0  0  0  0  0  0  0  0  0  0  0
    9.0095   -9.3695    4.6506 H   0  0  0  0  0  0  0  0  0  0  0  0
    8.1219   -8.6557    1.1462 H   0  0  0  0  0  0  0  0  0  0  0  0
    8.9848   -9.7287    2.1891 H   0  0  0  0  0  0  0  0  0  0  0  0
   12.1463   -8.1763    1.8605 H   0  0  0  0  0  0  0  0  0  0  0  0
   11.2218   -9.0963    3.0164 H   0  0  0  0  0  0  0  0  0  0  0  0
   12.2900   -7.0246    3.9591 H   0  0  0  0  0  0  0  0  0  0  0  0
   10.5634   -7.0015    4.1969 H   0  0  0  0  0  0  0  0  0  0  0  0
   12.1584   -5.4781    2.2853 H   0  0  0  0  0  0  0  0  0  0  0  0
   10.3552   -4.6705    1.1926 H   0  0  0  0  0  0  0  0  0  0  0  0
    9.2441   -5.3717    2.3344 H   0  0  0  0  0  0  0  0  0  0  0  0
   10.8884   -6.7366    0.1628 H   0  0  0  0  0  0  0  0  0  0  0  0
    9.1514   -6.6903    0.2462 H   0  0  0  0  0  0  0  0  0  0  0  0
    7.0878   -6.6525    1.9758 H   0  0  0  0  0  0  0  0  0  0  0  0
    3.9297   -2.8869   -0.9943 H   0  0  0  0  0  0  0  0  0  0  0  0
    2.9515   -3.3079    0.4170 H   0  0  0  0  0  0  0  0  0  0  0  0
    3.3459   -5.2582   -1.0733 H   0  0  0  0  0  0  0  0  0  0  0  0
    4.0566   -5.5573    0.5074 H   0  0  0  0  0  0  0  0  0  0  0  0
  1  2  1  0  0  0  0
  2  3  1  0  0  0  0
  2  7  2  0  0  0  0
  3  4  2  0  0  0  0
  3 32  1  0  0  0  0
  4  5  1  0  0  0  0
  4 33  1  0  0  0  0
  5  6  2  0  0  0  0
  5 31  1  0  0  0  0
  6  7  1  0  0  0  0
  6  8  1  0  0  0  0
  7 34  1  0  0  0  0
  8  9  1  0  0  0  0
  8 29  1  0  0  0  0
  8 35  1  0  0  0  0
  9 10  2  0  0  0  0
  9 11  1  0  0  0  0
 11 12  1  0  0  0  0
 11 36  1  0  0  0  0
 12 13  1  0  0  0  0
 12 28  2  0  0  0  0
 13 14  2  0  0  0  0
 13 37  1  0  0  0  0
 14 15  1  0  0  0  0
 15 16  2  0  0  0  0
 15 38  1  0  0  0  0
 16 17  1  0  0  0  0
 16 28  1  0  0  0  0
 17 18  2  0  0  0  0
 17 39  1  0  0  0  0
 18 19  1  0  0  0  0
 18 40  1  0  0  0  0
 19 20  1  0  0  0  0
 19 27  2  0  0  0  0
 20 21  1  0  0  0  0
 20 41  1  0  0  0  0
 20 42  1  0  0  0  0
 21 22  1  0  0  0  0
 21 26  1  0  0  0  0
 22 23  1  0  0  0  0
 22 43  1  0  0  0  0
 22 44  1  0  0  0  0
 23 24  1  0  0  0  0
 23 45  1  0  0  0  0
 23 46  1  0  0  0  0
 24 25  1  0  0  0  0
 24 47  1  0  0  0  0
 25 26  1  0  0  0  0
 25 48  1  0  0  0  0
 25 49  1  0  0  0  0
 26 50  1  0  0  0  0
 26 51  1  0  0  0  0
 27 28  1  0  0  0  0
 27 52  1  0  0  0  0
 29 30  1  0  0  0  0
 29 53  1  0  0  0  0
 29 54  1  0  0  0  0
 30 31  1  0  0  0  0
 30 55  1  0  0  0  0
 30 56  1  0  0  0  0
M  END
$$$$
