
 OpenBabel07202414183D

 62 67  0  0  1  0  0  0  0  0999 V2000
    1.7171    0.3169   -2.2643 C   0  0  0  0  0  0  0  0  0  0  0  0
    3.0343    0.2293   -1.6728 N   0  0  0  0  0  0  0  0  0  0  0  0
    3.7815   -0.9118   -1.3583 C   0  0  0  0  0  0  0  0  0  0  0  0
    5.0143   -0.5597   -0.8989 C   0  0  0  0  0  0  0  0  0  0  0  0
    6.2131   -1.3666   -0.4473 C   0  0  0  0  0  0  0  0  0  0  0  0
    5.9413   -2.7911   -0.6019 N   0  0  0  0  0  0  0  0  0  0  0  0
    6.9879   -3.8262   -0.2812 C   0  0  0  0  0  0  0  0  0  0  0  0
    6.2691   -5.2531   -0.5188 C   0  0  3  0  0  0  0  0  0  0  0  0
    5.8453   -5.1315   -2.0581 C   0  0  0  0  0  0  0  0  0  0  0  0
    6.3526   -4.2342   -2.7431 O   0  0  0  0  0  0  0  0  0  0  0  0
    5.0689   -6.1096   -2.6466 N   0  0  0  0  0  0  0  0  0  0  0  0
    5.0402   -6.3370   -4.0733 C   0  0  0  0  0  0  0  0  0  0  0  0
    5.5312   -5.4200   -5.0164 C   0  0  0  0  0  0  0  0  0  0  0  0
    5.7210   -5.6635   -6.3364 N   0  0  0  0  0  0  0  0  0  0  0  0
    5.3544   -6.8779   -6.7745 C   0  0  0  0  0  0  0  0  0  0  0  0
    4.7286   -7.8323   -5.9818 C   0  0  0  0  0  0  0  0  0  0  0  0
    4.2565   -9.0250   -6.5525 C   0  0  0  0  0  0  0  0  0  0  0  0
    3.6089   -9.9721   -5.7680 C   0  0  0  0  0  0  0  0  0  0  0  0
    3.4571   -9.7506   -4.4056 C   0  0  0  0  0  0  0  0  0  0  0  0
    3.9332   -8.5722   -3.8237 C   0  0  0  0  0  0  0  0  0  0  0  0
    4.5655   -7.5711   -4.5930 C   0  0  0  0  0  0  0  0  0  0  0  0
    5.1728   -5.2514    0.5997 C   0  0  0  0  0  0  0  0  0  0  0  0
    5.7944   -5.8748    1.8560 C   0  0  0  0  0  0  0  0  0  0  0  0
    5.7728   -7.2801    1.6616 O   0  0  0  0  0  0  0  0  0  0  0  0
    6.4588   -7.6176    0.5240 C   0  0  0  0  0  0  0  0  0  0  0  0
    6.5586   -8.9975    0.3224 C   0  0  0  0  0  0  0  0  0  0  0  0
    7.2367   -9.4809   -0.7840 C   0  0  0  0  0  0  0  0  0  0  0  0
    7.8768   -8.5766   -1.6295 C   0  0  0  0  0  0  0  0  0  0  0  0
    8.7429   -9.1899   -2.9851 Cl  0  0  0  0  0  0  0  0  0  0  0  0
    7.7607   -7.1848   -1.4419 C   0  0  0  0  0  0  0  0  0  0  0  0
    6.9551   -6.6687   -0.4092 C   0  0  0  0  0  0  0  0  0  0  0  0
    5.0349    0.8379   -0.9390 N   0  0  0  0  0  0  0  0  0  0  0  0
    5.8953    1.8362   -0.6625 N   0  0  0  0  0  0  0  0  0  0  0  0
    5.1953    2.9396   -0.9851 C   0  0  0  0  0  0  0  0  0  0  0  0
    3.8916    2.6730   -1.4754 C   0  0  0  0  0  0  0  0  0  0  0  0
    2.9078    3.5857   -1.9130 C   0  0  0  0  0  0  0  0  0  0  0  0
    2.0870    4.3467   -2.2747 N   0  0  0  0  0  0  0  0  0  0  0  0
    3.8223    1.3103   -1.4241 C   0  0  0  0  0  0  0  0  0  0  0  0
    1.2633   -0.6714   -2.3870 H   0  0  0  0  0  0  0  0  0  0  0  0
    1.7610    0.7894   -3.2542 H   0  0  0  0  0  0  0  0  0  0  0  0
    1.0457    0.9144   -1.6330 H   0  0  0  0  0  0  0  0  0  0  0  0
    3.3552   -1.8953   -1.5025 H   0  0  0  0  0  0  0  0  0  0  0  0
    6.4230   -1.1388    0.6008 H   0  0  0  0  0  0  0  0  0  0  0  0
    7.0769   -1.0901   -1.0546 H   0  0  0  0  0  0  0  0  0  0  0  0
    5.7572   -2.9034   -1.6111 H   0  0  0  0  0  0  0  0  0  0  0  0
    7.3178   -3.7129    0.7566 H   0  0  0  0  0  0  0  0  0  0  0  0
    7.8657   -3.7027   -0.9260 H   0  0  0  0  0  0  0  0  0  0  0  0
    4.7753   -6.8681   -2.0498 H   0  0  0  0  0  0  0  0  0  0  0  0
    5.7991   -4.3989   -4.7658 H   0  0  0  0  0  0  0  0  0  0  0  0
    5.5756   -7.0602   -7.8238 H   0  0  0  0  0  0  0  0  0  0  0  0
    4.3683   -9.2100   -7.6196 H   0  0  0  0  0  0  0  0  0  0  0  0
    3.2174  -10.8788   -6.2222 H   0  0  0  0  0  0  0  0  0  0  0  0
    2.9550  -10.4907   -3.7881 H   0  0  0  0  0  0  0  0  0  0  0  0
    3.7673   -8.4455   -2.7605 H   0  0  0  0  0  0  0  0  0  0  0  0
    4.2842   -5.8085    0.2892 H   0  0  0  0  0  0  0  0  0  0  0  0
    4.8364   -4.2507    0.8859 H   0  0  0  0  0  0  0  0  0  0  0  0
    5.2209   -5.6500    2.7599 H   0  0  0  0  0  0  0  0  0  0  0  0
    6.8279   -5.5490    2.0598 H   0  0  0  0  0  0  0  0  0  0  0  0
    6.0718   -9.6850    1.0126 H   0  0  0  0  0  0  0  0  0  0  0  0
    7.2645  -10.5515   -0.9732 H   0  0  0  0  0  0  0  0  0  0  0  0
    8.2021   -6.5253   -2.1866 H   0  0  0  0  0  0  0  0  0  0  0  0
    5.6729    3.9062   -0.8524 H   0  0  0  0  0  0  0  0  0  0  0  0
  1  2  1  0  0  0  0
  1 39  1  0  0  0  0
  1 40  1  0  0  0  0
  1 41  1  0  0  0  0
  2  3  1  0  0  0  0
  2 38  1  0  0  0  0
  3  4  2  0  0  0  0
  3 42  1  0  0  0  0
  4  5  1  0  0  0  0
  4 32  1  0  0  0  0
  5  6  1  0  0  0  0
  5 43  1  0  0  0  0
  5 44  1  0  0  0  0
  6  7  1  0  0  0  0
  6 45  1  0  0  0  0
  7  8  1  0  0  0  0
  7 46  1  0  0  0  0
  7 47  1  0  0  0  0
  8  9  1  0  0  0  0
  8 22  1  0  0  0  0
  8 31  1  0  0  0  0
  9 10  2  0  0  0  0
  9 11  1  0  0  0  0
 11 12  1  0  0  0  0
 11 48  1  0  0  0  0
 12 13  1  0  0  0  0
 12 21  2  0  0  0  0
 13 14  2  0  0  0  0
 13 49  1  0  0  0  0
 14 15  1  0  0  0  0
 15 16  2  0  0  0  0
 15 50  1  0  0  0  0
 16 17  1  0  0  0  0
 16 21  1  0  0  0  0
 17 18  2  0  0  0  0
 17 51  1  0  0  0  0
 18 19  1  0  0  0  0
 18 52  1  0  0  0  0
 19 20  2  0  0  0  0
 19 53  1  0  0  0  0
 20 21  1  0  0  0  0
 20 54  1  0  0  0  0
 22 23  1  0  0  0  0
 22 55  1  0  0  0  0
 22 56  1  0  0  0  0
 23 24  1  0  0  0  0
 23 57  1  0  0  0  0
 23 58  1  0  0  0  0
 24 25  1  0  0  0  0
 25 26  1  0  0  0  0
 25 31  2  0  0  0  0
 26 27  2  0  0  0  0
 26 59  1  0  0  0  0
 27 28  1  0  0  0  0
 27 60  1  0  0  0  0
 28 29  1  0  0  0  0
 28 30  2  0  0  0  0
 30 31  1  0  0  0  0
 30 61  1  0  0  0  0
 32 33  1  0  0  0  0
 32 38  1  0  0  0  0
 33 34  2  0  0  0  0
 34 35  1  0  0  0  0
 34 62  1  0  0  0  0
 35 36  1  0  0  0  0
 35 38  2  0  0  0  0
 36 37  3  0  0  0  0
M  END
$$$$
