
 OpenBabel07202414173D

 44 47  0  0  1  0  0  0  0  0999 V2000
    1.3002   -2.1430   -1.9870 Cl  0  0  0  0  0  0  0  0  0  0  0  0
    1.0277   -0.9249   -0.8027 C   0  0  0  0  0  0  0  0  0  0  0  0
    1.6797    0.3034   -0.9109 C   0  0  0  0  0  0  0  0  0  0  0  0
    1.4702    1.3029    0.0520 C   0  0  0  0  0  0  0  0  0  0  0  0
    2.2338    2.6071   -0.0460 C   0  0  0  0  0  0  0  0  0  0  0  0
    1.3659    3.8488   -0.0142 C   0  0  0  0  0  0  0  0  0  0  0  0
    1.0854    4.3934    1.0530 O   0  0  0  0  0  0  0  0  0  0  0  0
    0.9023    4.2733   -1.2552 N   0  0  0  0  0  0  0  0  0  0  0  0
    0.0731    5.3795   -1.3597 C   0  0  0  0  0  0  0  0  0  0  0  0
    0.4499    6.5688   -0.8591 C   0  0  0  0  0  0  0  0  0  0  0  0
   -0.4428    7.7474   -0.8683 C   0  0  0  0  0  0  0  0  0  0  0  0
   -0.0677    8.8255   -0.4213 O   0  0  0  0  0  0  0  0  0  0  0  0
   -1.6874    7.5660   -1.3881 N   0  0  0  0  0  0  0  0  0  0  0  0
   -2.1340    6.3515   -1.9247 C   0  0  0  0  0  0  0  0  0  0  0  0
   -3.4491    6.2647   -2.3814 C   0  0  0  0  0  0  0  0  0  0  0  0
   -3.9357    5.0531   -2.8646 C   0  0  0  0  0  0  0  0  0  0  0  0
   -3.1086    3.9356   -2.8904 C   0  0  0  0  0  0  0  0  0  0  0  0
   -1.7867    4.0250   -2.4380 C   0  0  0  0  0  0  0  0  0  0  0  0
   -1.2763    5.2368   -1.9501 C   0  0  0  0  0  0  0  0  0  0  0  0
    0.6084    1.0339    1.1362 C   0  0  0  0  0  0  0  0  0  0  0  0
   -0.0303   -0.2064    1.2415 C   0  0  0  0  0  0  0  0  0  0  0  0
   -0.8939   -0.5757    2.2439 O   0  0  0  0  0  0  0  0  0  0  0  0
   -0.7670    0.0308    3.5429 C   0  0  3  0  0  0  0  0  0  0  0  0
    0.4863   -0.3026    4.3821 C   0  0  0  0  0  0  0  0  0  0  0  0
   -0.4708   -1.1631    5.2113 C   0  0  0  0  0  0  0  0  0  0  0  0
   -0.3898   -2.0463    6.0251 O   0  0  0  0  0  0  0  0  0  0  0  0
   -1.5573   -0.6341    4.5920 N   0  0  0  0  0  0  0  0  0  0  0  0
    0.1694   -1.1783    0.2615 C   0  0  0  0  0  0  0  0  0  0  0  0
    2.3644    0.4691   -1.7404 H   0  0  0  0  0  0  0  0  0  0  0  0
    2.8599    2.6349   -0.9446 H   0  0  0  0  0  0  0  0  0  0  0  0
    2.9233    2.6690    0.8056 H   0  0  0  0  0  0  0  0  0  0  0  0
    0.8001    3.5463   -1.9527 H   0  0  0  0  0  0  0  0  0  0  0  0
    1.4205    6.7311   -0.4058 H   0  0  0  0  0  0  0  0  0  0  0  0
   -2.2974    8.3686   -1.3545 H   0  0  0  0  0  0  0  0  0  0  0  0
   -4.1103    7.1281   -2.3483 H   0  0  0  0  0  0  0  0  0  0  0  0
   -4.9675    4.9768   -3.1982 H   0  0  0  0  0  0  0  0  0  0  0  0
   -3.4979    2.9823   -3.2403 H   0  0  0  0  0  0  0  0  0  0  0  0
   -1.1910    3.1158   -2.4465 H   0  0  0  0  0  0  0  0  0  0  0  0
    0.4483    1.8063    1.8854 H   0  0  0  0  0  0  0  0  0  0  0  0
   -1.0247    1.0966    3.5191 H   0  0  0  0  0  0  0  0  0  0  0  0
    0.9223    0.5340    4.9311 H   0  0  0  0  0  0  0  0  0  0  0  0
    1.2640   -0.8821    3.8818 H   0  0  0  0  0  0  0  0  0  0  0  0
   -2.3448   -1.2552    4.4586 H   0  0  0  0  0  0  0  0  0  0  0  0
   -0.3360   -2.1372    0.3436 H   0  0  0  0  0  0  0  0  0  0  0  0
  1  2  1  0  0  0  0
  2  3  1  0  0  0  0
  2 28  2  0  0  0  0
  3  4  2  0  0  0  0
  3 29  1  0  0  0  0
  4  5  1  0  0  0  0
  4 20  1  0  0  0  0
  5  6  1  0  0  0  0
  5 30  1  0  0  0  0
  5 31  1  0  0  0  0
  6  7  2  0  0  0  0
  6  8  1  0  0  0  0
  8  9  1  0  0  0  0
  8 32  1  0  0  0  0
  9 10  2  0  0  0  0
  9 19  1  0  0  0  0
 10 11  1  0  0  0  0
 10 33  1  0  0  0  0
 11 12  2  0  0  0  0
 11 13  1  0  0  0  0
 13 14  1  0  0  0  0
 13 34  1  0  0  0  0
 14 15  1  0  0  0  0
 14 19  2  0  0  0  0
 15 16  2  0  0  0  0
 15 35  1  0  0  0  0
 16 17  1  0  0  0  0
 16 36  1  0  0  0  0
 17 18  2  0  0  0  0
 17 37  1  0  0  0  0
 18 19  1  0  0  0  0
 18 38  1  0  0  0  0
 20 21  2  0  0  0  0
 20 39  1  0  0  0  0
 21 22  1  0  0  0  0
 21 28  1  0  0  0  0
 22 23  1  0  0  0  0
 23 24  1  0  0  0  0
 23 27  1  0  0  0  0
 23 40  1  0  0  0  0
 24 25  1  0  0  0  0
 24 41  1  0  0  0  0
 24 42  1  0  0  0  0
 25 26  2  0  0  0  0
 25 27  1  0  0  0  0
 27 43  1  0  0  0  0
 28 44  1  0  0  0  0
M  END
$$$$
