
 OpenBabel07202414143D

 54 57  0  0  0  0  0  0  0  0999 V2000
    0.8527    2.5138    2.9874 C   0  0  0  0  0  0  0  0  0  0  0  0
    1.7547    3.2786    2.1969 O   0  0  0  0  0  0  0  0  0  0  0  0
    2.7977    2.6259    1.5986 C   0  0  0  0  0  0  0  0  0  0  0  0
    2.7618    1.3839    0.9627 C   0  0  0  0  0  0  0  0  0  0  0  0
    1.6492    0.5992    0.8753 O   0  0  0  0  0  0  0  0  0  0  0  0
    3.8935    0.8873    0.3157 C   0  0  0  0  0  0  0  0  0  0  0  0
    5.0751    1.6288    0.2891 C   0  0  0  0  0  0  0  0  0  0  0  0
    5.1423    2.8823    0.9097 C   0  0  0  0  0  0  0  0  0  0  0  0
    6.4369    3.6652    0.9806 C   0  0  0  0  0  0  0  0  0  0  0  0
    7.2785    3.4201   -0.1953 N   0  0  0  0  0  0  0  0  0  0  0  0
    8.6604    3.6281   -0.0643 C   0  0  0  0  0  0  0  0  0  0  0  0
    9.5227    2.9317   -0.9324 C   0  0  0  0  0  0  0  0  0  0  0  0
   10.9167    3.1136   -0.8913 C   0  0  0  0  0  0  0  0  0  0  0  0
   11.8369    2.4245   -1.8750 C   0  0  0  0  0  0  0  0  0  0  0  0
   11.8216    0.9073   -1.8870 C   0  0  0  0  0  0  0  0  0  0  0  0
   11.6837    0.2871   -2.9392 O   0  0  0  0  0  0  0  0  0  0  0  0
   12.0325    0.3156   -0.6544 N   0  0  0  0  0  0  0  0  0  0  0  0
   12.0851   -1.0939   -0.5027 C   0  0  0  0  0  0  0  0  0  0  0  0
   12.8914   -1.8761   -1.3318 C   0  0  0  0  0  0  0  0  0  0  0  0
   13.0339   -3.2167   -1.2145 N   0  0  0  0  0  0  0  0  0  0  0  0
   12.3057   -3.8123   -0.2463 C   0  0  0  0  0  0  0  0  0  0  0  0
   11.4469   -3.1358    0.6312 C   0  0  0  0  0  0  0  0  0  0  0  0
   10.6752   -3.8358    1.5901 C   0  0  0  0  0  0  0  0  0  0  0  0
    9.7920   -3.1458    2.4165 C   0  0  0  0  0  0  0  0  0  0  0  0
    9.6614   -1.7668    2.2986 C   0  0  0  0  0  0  0  0  0  0  0  0
   10.4260   -1.0702    1.3627 C   0  0  0  0  0  0  0  0  0  0  0  0
   11.3357   -1.7353    0.5083 C   0  0  0  0  0  0  0  0  0  0  0  0
   11.4437    4.0361    0.0218 C   0  0  0  0  0  0  0  0  0  0  0  0
   10.5930    4.7662    0.8496 C   0  0  0  0  0  0  0  0  0  0  0  0
   11.2519    5.9352    1.9287 Cl  0  0  0  0  0  0  0  0  0  0  0  0
    9.2131    4.5780    0.7987 C   0  0  0  0  0  0  0  0  0  0  0  0
    3.9933    3.3624    1.5667 C   0  0  0  0  0  0  0  0  0  0  0  0
    0.3326    3.2104    3.6543 H   0  0  0  0  0  0  0  0  0  0  0  0
    1.3610    1.7681    3.6056 H   0  0  0  0  0  0  0  0  0  0  0  0
    0.0785    2.0578    2.3660 H   0  0  0  0  0  0  0  0  0  0  0  0
    0.8860    1.1951    0.8312 H   0  0  0  0  0  0  0  0  0  0  0  0
    3.8494   -0.0717   -0.1943 H   0  0  0  0  0  0  0  0  0  0  0  0
    5.9443    1.2214   -0.2246 H   0  0  0  0  0  0  0  0  0  0  0  0
    6.9482    3.3514    1.8993 H   0  0  0  0  0  0  0  0  0  0  0  0
    6.2170    4.7379    1.0492 H   0  0  0  0  0  0  0  0  0  0  0  0
    6.9258    3.9486   -0.9944 H   0  0  0  0  0  0  0  0  0  0  0  0
    9.0888    2.2331   -1.6488 H   0  0  0  0  0  0  0  0  0  0  0  0
   12.8778    2.7245   -1.7012 H   0  0  0  0  0  0  0  0  0  0  0  0
   11.5762    2.7742   -2.8814 H   0  0  0  0  0  0  0  0  0  0  0  0
   11.7529    0.8581    0.1516 H   0  0  0  0  0  0  0  0  0  0  0  0
   13.5000   -1.4287   -2.1141 H   0  0  0  0  0  0  0  0  0  0  0  0
   12.4269   -4.8908   -0.1973 H   0  0  0  0  0  0  0  0  0  0  0  0
   10.7551   -4.9128    1.6773 H   0  0  0  0  0  0  0  0  0  0  0  0
    9.1924   -3.6896    3.1396 H   0  0  0  0  0  0  0  0  0  0  0  0
    8.9504   -1.2296    2.9227 H   0  0  0  0  0  0  0  0  0  0  0  0
   10.2604    0.0003    1.2814 H   0  0  0  0  0  0  0  0  0  0  0  0
   12.5155    4.2168    0.0671 H   0  0  0  0  0  0  0  0  0  0  0  0
    8.5789    5.1925    1.4304 H   0  0  0  0  0  0  0  0  0  0  0  0
    4.0240    4.3247    2.0751 H   0  0  0  0  0  0  0  0  0  0  0  0
  1  2  1  0  0  0  0
  1 33  1  0  0  0  0
  1 34  1  0  0  0  0
  1 35  1  0  0  0  0
  2  3  1  0  0  0  0
  3  4  2  0  0  0  0
  3 32  1  0  0  0  0
  4  5  1  0  0  0  0
  4  6  1  0  0  0  0
  5 36  1  0  0  0  0
  6  7  2  0  0  0  0
  6 37  1  0  0  0  0
  7  8  1  0  0  0  0
  7 38  1  0  0  0  0
  8  9  1  0  0  0  0
  8 32  2  0  0  0  0
  9 10  1  0  0  0  0
  9 39  1  0  0  0  0
  9 40  1  0  0  0  0
 10 11  1  0  0  0  0
 10 41  1  0  0  0  0
 11 12  2  0  0  0  0
 11 31  1  0  0  0  0
 12 13  1  0  0  0  0
 12 42  1  0  0  0  0
 13 14  1  0  0  0  0
 13 28  2  0  0  0  0
 14 15  1  0  0  0  0
 14 43  1  0  0  0  0
 14 44  1  0  0  0  0
 15 16  2  0  0  0  0
 15 17  1  0  0  0  0
 17 18  1  0  0  0  0
 17 45  1  0  0  0  0
 18 19  2  0  0  0  0
 18 27  1  0  0  0  0
 19 20  1  0  0  0  0
 19 46  1  0  0  0  0
 20 21  2  0  0  0  0
 21 22  1  0  0  0  0
 21 47  1  0  0  0  0
 22 23  2  0  0  0  0
 22 27  1  0  0  0  0
 23 24  1  0  0  0  0
 23 48  1  0  0  0  0
 24 25  2  0  0  0  0
 24 49  1  0  0  0  0
 25 26  1  0  0  0  0
 25 50  1  0  0  0  0
 26 27  2  0  0  0  0
 26 51  1  0  0  0  0
 28 29  1  0  0  0  0
 28 52  1  0  0  0  0
 29 30  1  0  0  0  0
 29 31  2  0  0  0  0
 31 53  1  0  0  0  0
 32 54  1  0  0  0  0
M  END
$$$$
