
 OpenBabel07202414193D

 49 52  0  0  1  0  0  0  0  0999 V2000
    1.1270    0.1240   -0.6627 O   0  0  0  0  0  0  0  0  0  0  0  0
    2.2134   -0.0458   -0.1039 C   0  0  0  0  0  0  0  0  0  0  0  0
    2.7952    1.0438    0.7794 C   0  0  0  0  0  0  0  0  0  0  0  0
    2.3891    1.0280    2.2383 C   0  0  0  0  0  0  0  0  0  0  0  0
    1.4873    0.0803    2.7256 C   0  0  0  0  0  0  0  0  0  0  0  0
    1.0512    0.0150    4.0005 N   0  0  0  0  0  0  0  0  0  0  0  0
    1.5165    0.9567    4.8440 C   0  0  0  0  0  0  0  0  0  0  0  0
    2.4222    1.9564    4.4970 C   0  0  0  0  0  0  0  0  0  0  0  0
    2.8844    2.8826    5.4473 C   0  0  0  0  0  0  0  0  0  0  0  0
    3.8055    3.8695    5.0983 C   0  0  0  0  0  0  0  0  0  0  0  0
    4.2676    3.9318    3.7868 C   0  0  0  0  0  0  0  0  0  0  0  0
    3.8119    3.0147    2.8324 C   0  0  0  0  0  0  0  0  0  0  0  0
    2.8828    1.9964    3.1594 C   0  0  0  0  0  0  0  0  0  0  0  0
    2.9184   -1.2189   -0.2500 N   0  0  0  0  0  0  0  0  0  0  0  0
    2.4691   -2.2371   -1.1728 C   0  0  0  0  0  0  0  0  0  0  0  0
    2.9662   -3.5299   -0.5644 C   0  0  0  0  0  0  0  0  0  0  0  0
    4.3256   -3.1676    0.0731 C   0  0  1  0  0  0  0  0  0  0  0  0
    5.5015   -3.3109   -0.8314 N   0  0  0  0  0  0  0  0  0  0  0  0
    6.7547   -2.9733   -0.1148 C   0  0  0  0  0  0  0  0  0  0  0  0
    7.9891   -3.0876   -1.0134 C   0  0  0  0  0  0  0  0  0  0  0  0
    8.0946   -4.4704   -1.6387 C   0  0  0  0  0  0  0  0  0  0  0  0
    6.7931   -4.8163   -2.3406 C   0  0  0  0  0  0  0  0  0  0  0  0
    5.6147   -4.6831   -1.3751 C   0  0  0  0  0  0  0  0  0  0  0  0
    4.0494   -1.7004    0.5404 C   0  0  0  0  0  0  0  0  0  0  0  0
    2.4471    1.9883    0.3373 H   0  0  0  0  0  0  0  0  0  0  0  0
    3.8846    1.0335    0.6846 H   0  0  0  0  0  0  0  0  0  0  0  0
    1.0690   -0.6976    2.0920 H   0  0  0  0  0  0  0  0  0  0  0  0
    1.1226    0.8856    5.8540 H   0  0  0  0  0  0  0  0  0  0  0  0
    2.5224    2.8411    6.4725 H   0  0  0  0  0  0  0  0  0  0  0  0
    4.1499    4.5758    5.8400 H   0  0  0  0  0  0  0  0  0  0  0  0
    4.9861    4.6995    3.5102 H   0  0  0  0  0  0  0  0  0  0  0  0
    4.2023    3.1100    1.8226 H   0  0  0  0  0  0  0  0  0  0  0  0
    2.9335   -2.0367   -2.1450 H   0  0  0  0  0  0  0  0  0  0  0  0
    1.3821   -2.2284   -1.2920 H   0  0  0  0  0  0  0  0  0  0  0  0
    2.9673   -4.3360   -1.2982 H   0  0  0  0  0  0  0  0  0  0  0  0
    2.2782   -3.8419    0.2319 H   0  0  0  0  0  0  0  0  0  0  0  0
    4.4875   -3.8052    0.9529 H   0  0  0  0  0  0  0  0  0  0  0  0
    6.8854   -3.6214    0.7627 H   0  0  0  0  0  0  0  0  0  0  0  0
    6.7288   -1.9436    0.2529 H   0  0  0  0  0  0  0  0  0  0  0  0
    8.8914   -2.8811   -0.4269 H   0  0  0  0  0  0  0  0  0  0  0  0
    7.9387   -2.3279   -1.8035 H   0  0  0  0  0  0  0  0  0  0  0  0
    8.2937   -5.2132   -0.8565 H   0  0  0  0  0  0  0  0  0  0  0  0
    8.9309   -4.5093   -2.3436 H   0  0  0  0  0  0  0  0  0  0  0  0
    6.8402   -5.8405   -2.7280 H   0  0  0  0  0  0  0  0  0  0  0  0
    6.6435   -4.1549   -3.2043 H   0  0  0  0  0  0  0  0  0  0  0  0
    5.7236   -5.4152   -0.5633 H   0  0  0  0  0  0  0  0  0  0  0  0
    4.7276   -4.9615   -1.9476 H   0  0  0  0  0  0  0  0  0  0  0  0
    4.8907   -1.0147    0.4176 H   0  0  0  0  0  0  0  0  0  0  0  0
    3.7580   -1.6891    1.5963 H   0  0  0  0  0  0  0  0  0  0  0  0
  1  2  2  0  0  0  0
  2  3  1  0  0  0  0
  2 14  1  0  0  0  0
  3  4  1  0  0  0  0
  3 25  1  0  0  0  0
  3 26  1  0  0  0  0
  4  5  1  0  0  0  0
  4 13  2  0  0  0  0
  5  6  2  0  0  0  0
  5 27  1  0  0  0  0
  6  7  1  0  0  0  0
  7  8  2  0  0  0  0
  7 28  1  0  0  0  0
  8  9  1  0  0  0  0
  8 13  1  0  0  0  0
  9 10  2  0  0  0  0
  9 29  1  0  0  0  0
 10 11  1  0  0  0  0
 10 30  1  0  0  0  0
 11 12  2  0  0  0  0
 11 31  1  0  0  0  0
 12 13  1  0  0  0  0
 12 32  1  0  0  0  0
 14 15  1  0  0  0  0
 14 24  1  0  0  0  0
 15 16  1  0  0  0  0
 15 33  1  0  0  0  0
 15 34  1  0  0  0  0
 16 17  1  0  0  0  0
 16 35  1  0  0  0  0
 16 36  1  0  0  0  0
 17 18  1  0  0  0  0
 17 24  1  0  0  0  0
 17 37  1  1  0  0  0
 18 19  1  0  0  0  0
 18 23  1  0  0  0  0
 19 20  1  0  0  0  0
 19 38  1  0  0  0  0
 19 39  1  0  0  0  0
 20 21  1  0  0  0  0
 20 40  1  0  0  0  0
 20 41  1  0  0  0  0
 21 22  1  0  0  0  0
 21 42  1  0  0  0  0
 21 43  1  0  0  0  0
 22 23  1  0  0  0  0
 22 44  1  0  0  0  0
 22 45  1  0  0  0  0
 23 46  1  0  0  0  0
 23 47  1  0  0  0  0
 24 48  1  0  0  0  0
 24 49  1  0  0  0  0
M  END
$$$$
