
 OpenBabel07202414153D

 44 45  0  0  0  0  0  0  0  0999 V2000
    1.7284    7.3257    1.7139 C   0  0  0  0  0  0  0  0  0  0  0  0
    2.0277    6.1155    2.4070 O   0  0  0  0  0  0  0  0  0  0  0  0
    3.1070    6.2823    3.3357 C   0  0  0  0  0  0  0  0  0  0  0  0
    3.3809    4.9806    4.1148 C   0  0  0  0  0  0  0  0  0  0  0  0
    4.3666    3.9020    3.6754 C   0  0  0  0  0  0  0  0  0  0  0  0
    4.7386    2.9899    4.6961 C   0  0  0  0  0  0  0  0  0  0  0  0
    5.6458    1.9489    4.4844 C   0  0  0  0  0  0  0  0  0  0  0  0
    6.2368    1.8064    3.2405 C   0  0  0  0  0  0  0  0  0  0  0  0
    5.8602    2.6431    2.2000 C   0  0  0  0  0  0  0  0  0  0  0  0
    4.8822    3.6604    2.3861 C   0  0  0  0  0  0  0  0  0  0  0  0
    4.3184    4.2494    1.1090 C   0  0  0  0  0  0  0  0  0  0  0  0
    3.6283    3.2536    0.2829 N   0  0  0  0  0  0  0  0  0  0  0  0
    3.1325    3.8037   -0.9838 C   0  0  0  0  0  0  0  0  0  0  0  0
    1.6307    4.1507   -1.0759 C   0  0  0  0  0  0  0  0  0  0  0  0
    0.7618    3.1314   -0.4920 N   0  0  0  0  0  0  0  0  0  0  0  0
    1.1603    2.7333    0.8553 C   0  0  0  0  0  0  0  0  0  0  0  0
    2.6506    2.3892    0.9670 C   0  0  0  0  0  0  0  0  0  0  0  0
   -0.5828    2.9608   -0.8271 C   0  0  0  0  0  0  0  0  0  0  0  0
   -1.3783    2.4252   -0.0437 O   0  0  0  0  0  0  0  0  0  0  0  0
   -1.0659    3.4203   -2.1788 C   0  0  0  0  0  0  0  0  0  0  0  0
   -1.7216    5.0630   -2.0520 Cl  0  0  0  0  0  0  0  0  0  0  0  0
    7.3701    0.5440    2.9667 Cl  0  0  0  0  0  0  0  0  0  0  0  0
    0.8704    7.1494    1.0581 H   0  0  0  0  0  0  0  0  0  0  0  0
    2.5773    7.6337    1.0949 H   0  0  0  0  0  0  0  0  0  0  0  0
    1.4685    8.1224    2.4176 H   0  0  0  0  0  0  0  0  0  0  0  0
    2.7792    7.0404    4.0581 H   0  0  0  0  0  0  0  0  0  0  0  0
    4.0037    6.6602    2.8328 H   0  0  0  0  0  0  0  0  0  0  0  0
    2.4235    4.4849    4.3158 H   0  0  0  0  0  0  0  0  0  0  0  0
    3.7785    5.3319    5.0764 H   0  0  0  0  0  0  0  0  0  0  0  0
    4.2857    3.0741    5.6846 H   0  0  0  0  0  0  0  0  0  0  0  0
    5.8724    1.2502    5.2867 H   0  0  0  0  0  0  0  0  0  0  0  0
    6.2698    2.4684    1.2057 H   0  0  0  0  0  0  0  0  0  0  0  0
    5.1726    4.6524    0.5480 H   0  0  0  0  0  0  0  0  0  0  0  0
    3.6741    5.0976    1.2859 H   0  0  0  0  0  0  0  0  0  0  0  0
    3.3509    3.0520   -1.7513 H   0  0  0  0  0  0  0  0  0  0  0  0
    3.7106    4.6906   -1.2757 H   0  0  0  0  0  0  0  0  0  0  0  0
    1.3824    4.3139   -2.1285 H   0  0  0  0  0  0  0  0  0  0  0  0
    1.4250    5.0888   -0.5477 H   0  0  0  0  0  0  0  0  0  0  0  0
    0.5853    1.8510    1.1603 H   0  0  0  0  0  0  0  0  0  0  0  0
    0.8937    3.5495    1.5346 H   0  0  0  0  0  0  0  0  0  0  0  0
    2.7920    1.3883    0.5375 H   0  0  0  0  0  0  0  0  0  0  0  0
    2.8665    2.2521    2.0317 H   0  0  0  0  0  0  0  0  0  0  0  0
   -1.8628    2.7492   -2.5069 H   0  0  0  0  0  0  0  0  0  0  0  0
   -0.2812    3.3903   -2.9372 H   0  0  0  0  0  0  0  0  0  0  0  0
  1  2  1  0  0  0  0
  1 23  1  0  0  0  0
  1 24  1  0  0  0  0
  1 25  1  0  0  0  0
  2  3  1  0  0  0  0
  3  4  1  0  0  0  0
  3 26  1  0  0  0  0
  3 27  1  0  0  0  0
  4  5  1  0  0  0  0
  4 28  1  0  0  0  0
  4 29  1  0  0  0  0
  5  6  1  0  0  0  0
  5 10  2  0  0  0  0
  6  7  2  0  0  0  0
  6 30  1  0  0  0  0
  7  8  1  0  0  0  0
  7 31  1  0  0  0  0
  8  9  2  0  0  0  0
  8 22  1  0  0  0  0
  9 10  1  0  0  0  0
  9 32  1  0  0  0  0
 10 11  1  0  0  0  0
 11 12  1  0  0  0  0
 11 33  1  0  0  0  0
 11 34  1  0  0  0  0
 12 13  1  0  0  0  0
 12 17  1  0  0  0  0
 13 14  1  0  0  0  0
 13 35  1  0  0  0  0
 13 36  1  0  0  0  0
 14 15  1  0  0  0  0
 14 37  1  0  0  0  0
 14 38  1  0  0  0  0
 15 16  1  0  0  0  0
 15 18  1  0  0  0  0
 16 17  1  0  0  0  0
 16 39  1  0  0  0  0
 16 40  1  0  0  0  0
 17 41  1  0  0  0  0
 17 42  1  0  0  0  0
 18 19  2  0  0  0  0
 18 20  1  0  0  0  0
 20 21  1  0  0  0  0
 20 43  1  0  0  0  0
 20 44  1  0  0  0  0
M  END
$$$$
