
 OpenBabel07202414163D

 38 40  0  0  1  0  0  0  0  0999 V2000
    5.6060    1.7927    1.5870 C   0  0  0  0  0  0  0  0  0  0  0  0
    4.9982    0.4137    1.5012 C   0  0  0  0  0  0  0  0  0  0  0  0
    3.8433    0.1743    2.2474 C   0  0  0  0  0  0  0  0  0  0  0  0
    3.2776   -1.0789    2.1931 C   0  0  0  0  0  0  0  0  0  0  0  0
    3.8020   -2.1042    1.4869 N   0  0  0  0  0  0  0  0  0  0  0  0
    4.9000   -1.9034    0.7445 C   0  0  0  0  0  0  0  0  0  0  0  0
    5.4438   -3.0408    0.0496 N   0  0  0  0  0  0  0  0  0  0  0  0
    4.8523   -4.2996    0.0889 C   0  0  0  0  0  0  0  0  0  0  0  0
    3.7199   -4.5380    0.5181 O   0  0  0  0  0  0  0  0  0  0  0  0
    5.6424   -5.5038   -0.4695 C   0  0  3  0  0  0  0  0  0  0  0  0
    5.6268   -5.5647   -2.0015 C   0  0  0  0  0  0  0  0  0  0  0  0
    6.8573   -6.2127   -2.6342 C   0  0  0  0  0  0  0  0  0  0  0  0
    7.5523   -7.1245   -1.7919 O   0  0  0  0  0  0  0  0  0  0  0  0
    7.9149   -6.5421   -0.6092 C   0  0  0  0  0  0  0  0  0  0  0  0
    9.1746   -6.8624   -0.1072 C   0  0  0  0  0  0  0  0  0  0  0  0
    9.5448   -6.4093    1.1560 C   0  0  0  0  0  0  0  0  0  0  0  0
    8.6241   -5.7030    1.9277 C   0  0  0  0  0  0  0  0  0  0  0  0
    9.0426   -5.2299    3.5279 Cl  0  0  0  0  0  0  0  0  0  0  0  0
    7.3594   -5.3883    1.4225 C   0  0  0  0  0  0  0  0  0  0  0  0
    7.0125   -5.7529    0.1151 C   0  0  0  0  0  0  0  0  0  0  0  0
    5.5566   -0.6382    0.7191 C   0  0  0  0  0  0  0  0  0  0  0  0
    6.5706   -0.3171   -0.2103 N   0  0  0  0  0  0  0  0  0  0  0  0
    5.0665    2.4265    2.3031 H   0  0  0  0  0  0  0  0  0  0  0  0
    5.5749    2.2981    0.6178 H   0  0  0  0  0  0  0  0  0  0  0  0
    6.6398    1.7324    1.9432 H   0  0  0  0  0  0  0  0  0  0  0  0
    3.3805    0.9471    2.8548 H   0  0  0  0  0  0  0  0  0  0  0  0
    2.3668   -1.3095    2.7386 H   0  0  0  0  0  0  0  0  0  0  0  0
    6.3251   -2.9121   -0.4124 H   0  0  0  0  0  0  0  0  0  0  0  0
    5.0649   -6.3812   -0.1311 H   0  0  0  0  0  0  0  0  0  0  0  0
    5.4717   -4.5799   -2.4564 H   0  0  0  0  0  0  0  0  0  0  0  0
    4.7458   -6.1517   -2.2988 H   0  0  0  0  0  0  0  0  0  0  0  0
    7.5687   -5.4520   -2.9762 H   0  0  0  0  0  0  0  0  0  0  0  0
    6.5556   -6.7728   -3.5282 H   0  0  0  0  0  0  0  0  0  0  0  0
    9.8583   -7.4692   -0.6953 H   0  0  0  0  0  0  0  0  0  0  0  0
   10.5329   -6.6393    1.5436 H   0  0  0  0  0  0  0  0  0  0  0  0
    6.6374   -4.8923    2.0686 H   0  0  0  0  0  0  0  0  0  0  0  0
    7.1297   -1.0776   -0.5651 H   0  0  0  0  0  0  0  0  0  0  0  0
    7.1316    0.4891    0.0464 H   0  0  0  0  0  0  0  0  0  0  0  0
  1  2  1  0  0  0  0
  1 23  1  0  0  0  0
  1 24  1  0  0  0  0
  1 25  1  0  0  0  0
  2  3  1  0  0  0  0
  2 21  2  0  0  0  0
  3  4  2  0  0  0  0
  3 26  1  0  0  0  0
  4  5  1  0  0  0  0
  4 27  1  0  0  0  0
  5  6  2  0  0  0  0
  6  7  1  0  0  0  0
  6 21  1  0  0  0  0
  7  8  1  0  0  0  0
  7 28  1  0  0  0  0
  8  9  2  0  0  0  0
  8 10  1  0  0  0  0
 10 11  1  0  0  0  0
 10 20  1  0  0  0  0
 10 29  1  0  0  0  0
 11 12  1  0  0  0  0
 11 30  1  0  0  0  0
 11 31  1  0  0  0  0
 12 13  1  0  0  0  0
 12 32  1  0  0  0  0
 12 33  1  0  0  0  0
 13 14  1  0  0  0  0
 14 15  1  0  0  0  0
 14 20  2  0  0  0  0
 15 16  2  0  0  0  0
 15 34  1  0  0  0  0
 16 17  1  0  0  0  0
 16 35  1  0  0  0  0
 17 18  1  0  0  0  0
 17 19  2  0  0  0  0
 19 20  1  0  0  0  0
 19 36  1  0  0  0  0
 21 22  1  0  0  0  0
 22 37  1  0  0  0  0
 22 38  1  0  0  0  0
M  END
$$$$
