
 OpenBabel07202414133D

 45 47  0  0  0  0  0  0  0  0999 V2000
    2.2701   -2.0226   -0.5759 C   0  0  0  0  0  0  0  0  0  0  0  0
    2.4769   -0.6678   -0.0036 N   0  0  0  0  0  0  0  0  0  0  0  0
    3.1733   -0.6289    1.2613 C   0  0  0  0  0  0  0  0  0  0  0  0
    2.7985   -1.4571    2.3144 C   0  0  0  0  0  0  0  0  0  0  0  0
    3.5281   -1.4364    3.4997 C   0  0  0  0  0  0  0  0  0  0  0  0
    4.6209   -0.5677    3.6553 C   0  0  0  0  0  0  0  0  0  0  0  0
    5.3671   -0.5890    4.8319 C   0  0  0  0  0  0  0  0  0  0  0  0
    6.4263    0.2012    5.0795 N   0  0  0  0  0  0  0  0  0  0  0  0
    6.7766    1.0597    4.0954 C   0  0  0  0  0  0  0  0  0  0  0  0
    6.1270    1.1756    2.8611 C   0  0  0  0  0  0  0  0  0  0  0  0
    6.5693    2.0965    1.8694 N   0  0  0  0  0  0  0  0  0  0  0  0
    7.8093    2.7196    1.8411 C   0  0  0  0  0  0  0  0  0  0  0  0
    8.7289    2.5262    2.6327 O   0  0  0  0  0  0  0  0  0  0  0  0
    7.9916    3.6803    0.6784 C   0  0  0  0  0  0  0  0  0  0  0  0
    8.5366    3.0195   -0.5651 C   0  0  0  0  0  0  0  0  0  0  0  0
    9.7703    2.3489   -0.5413 C   0  0  0  0  0  0  0  0  0  0  0  0
   10.2993    1.7865   -1.7061 C   0  0  0  0  0  0  0  0  0  0  0  0
    9.6018    1.8874   -2.9089 C   0  0  0  0  0  0  0  0  0  0  0  0
    8.3738    2.5441   -2.9385 C   0  0  0  0  0  0  0  0  0  0  0  0
    7.5043    2.6633   -4.4189 Cl  0  0  0  0  0  0  0  0  0  0  0  0
    7.8418    3.1115   -1.7789 C   0  0  0  0  0  0  0  0  0  0  0  0
    4.9956    0.3343    2.6273 C   0  0  0  0  0  0  0  0  0  0  0  0
    4.2254    0.2849    1.4305 C   0  0  0  0  0  0  0  0  0  0  0  0
    1.1124    0.3676   -0.0816 S   0  0  0  0  0  0  0  0  0  0  0  0
    0.8920    0.5117   -1.8443 C   0  0  0  0  0  0  0  0  0  0  0  0
   -0.0273   -0.3361    0.4677 O   0  0  0  0  0  0  0  0  0  0  0  0
    1.4978    1.6761    0.4121 O   0  0  0  0  0  0  0  0  0  0  0  0
    3.0618   -2.7109   -0.2612 H   0  0  0  0  0  0  0  0  0  0  0  0
    2.3134   -1.9664   -1.6673 H   0  0  0  0  0  0  0  0  0  0  0  0
    1.3099   -2.4517   -0.2739 H   0  0  0  0  0  0  0  0  0  0  0  0
    1.9547   -2.1357    2.2221 H   0  0  0  0  0  0  0  0  0  0  0  0
    3.2435   -2.1145    4.3025 H   0  0  0  0  0  0  0  0  0  0  0  0
    5.1298   -1.2760    5.6409 H   0  0  0  0  0  0  0  0  0  0  0  0
    7.6196    1.6848    4.3702 H   0  0  0  0  0  0  0  0  0  0  0  0
    5.9727    2.2286    1.0648 H   0  0  0  0  0  0  0  0  0  0  0  0
    8.6855    4.4702    0.9943 H   0  0  0  0  0  0  0  0  0  0  0  0
    7.0386    4.1822    0.4738 H   0  0  0  0  0  0  0  0  0  0  0  0
   10.3365    2.2663    0.3868 H   0  0  0  0  0  0  0  0  0  0  0  0
   11.2593    1.2765   -1.6743 H   0  0  0  0  0  0  0  0  0  0  0  0
   10.0218    1.4580   -3.8148 H   0  0  0  0  0  0  0  0  0  0  0  0
    6.8923    3.6393   -1.8310 H   0  0  0  0  0  0  0  0  0  0  0  0
    4.4503    0.9422    0.5966 H   0  0  0  0  0  0  0  0  0  0  0  0
    0.5805   -0.4515   -2.2532 H   0  0  0  0  0  0  0  0  0  0  0  0
    1.8304    0.8455   -2.2914 H   0  0  0  0  0  0  0  0  0  0  0  0
    0.1114    1.2533   -2.0287 H   0  0  0  0  0  0  0  0  0  0  0  0
  1  2  1  0  0  0  0
  1 28  1  0  0  0  0
  1 29  1  0  0  0  0
  1 30  1  0  0  0  0
  2  3  1  0  0  0  0
  2 24  1  0  0  0  0
  3  4  1  0  0  0  0
  3 23  2  0  0  0  0
  4  5  2  0  0  0  0
  4 31  1  0  0  0  0
  5  6  1  0  0  0  0
  5 32  1  0  0  0  0
  6  7  1  0  0  0  0
  6 22  2  0  0  0  0
  7  8  2  0  0  0  0
  7 33  1  0  0  0  0
  8  9  1  0  0  0  0
  9 10  2  0  0  0  0
  9 34  1  0  0  0  0
 10 11  1  0  0  0  0
 10 22  1  0  0  0  0
 11 12  1  0  0  0  0
 11 35  1  0  0  0  0
 12 13  2  0  0  0  0
 12 14  1  0  0  0  0
 14 15  1  0  0  0  0
 14 36  1  0  0  0  0
 14 37  1  0  0  0  0
 15 16  1  0  0  0  0
 15 21  2  0  0  0  0
 16 17  2  0  0  0  0
 16 38  1  0  0  0  0
 17 18  1  0  0  0  0
 17 39  1  0  0  0  0
 18 19  2  0  0  0  0
 18 40  1  0  0  0  0
 19 20  1  0  0  0  0
 19 21  1  0  0  0  0
 21 41  1  0  0  0  0
 22 23  1  0  0  0  0
 23 42  1  0  0  0  0
 24 25  1  0  0  0  0
 24 26  2  0  0  0  0
 24 27  2  0  0  0  0
 25 43  1  0  0  0  0
 25 44  1  0  0  0  0
 25 45  1  0  0  0  0
M  END
$$$$
