
 OpenBabel07202414153D

 40 43  0  0  1  0  0  0  0  0999 V2000
    8.7456    1.5532   -4.9578 C   0  0  0  0  0  0  0  0  0  0  0  0
    7.8777    1.0991   -3.9228 O   0  0  0  0  0  0  0  0  0  0  0  0
    7.2893    2.0838   -3.1674 C   0  0  0  0  0  0  0  0  0  0  0  0
    7.4636    3.4582   -3.3833 C   0  0  0  0  0  0  0  0  0  0  0  0
    6.8623    4.4231   -2.5591 C   0  0  0  0  0  0  0  0  0  0  0  0
    6.0487    3.9879   -1.4997 C   0  0  0  0  0  0  0  0  0  0  0  0
    5.2716    4.5667   -0.4490 C   0  0  0  0  0  0  0  0  0  0  0  0
    5.1339    5.9341   -0.1906 N   0  0  0  0  0  0  0  0  0  0  0  0
    4.3921    6.4174    0.8662 C   0  0  0  0  0  0  0  0  0  0  0  0
    3.7630    5.7257    1.6689 O   0  0  0  0  0  0  0  0  0  0  0  0
    4.3350    7.9421    1.0626 C   0  0  3  0  0  0  0  0  0  0  0  0
    2.8810    8.4165    0.9748 C   0  0  0  0  0  0  0  0  0  0  0  0
    2.4966    8.5529   -0.4883 C   0  0  0  0  0  0  0  0  0  0  0  0
    3.2824    9.5433   -1.1582 O   0  0  0  0  0  0  0  0  0  0  0  0
    4.6228    9.5163   -0.8900 C   0  0  0  0  0  0  0  0  0  0  0  0
    5.4223   10.3232   -1.6997 C   0  0  0  0  0  0  0  0  0  0  0  0
    6.8030   10.3716   -1.4990 C   0  0  0  0  0  0  0  0  0  0  0  0
    7.3789    9.6232   -0.4761 C   0  0  0  0  0  0  0  0  0  0  0  0
    9.0806    9.6609   -0.2362 Cl  0  0  0  0  0  0  0  0  0  0  0  0
    6.5842    8.8350    0.3536 C   0  0  0  0  0  0  0  0  0  0  0  0
    5.1959    8.7730    0.1487 C   0  0  0  0  0  0  0  0  0  0  0  0
    4.6861    3.6034    0.2692 N   0  0  0  0  0  0  0  0  0  0  0  0
    5.0649    2.4016   -0.2764 O   0  0  0  0  0  0  0  0  0  0  0  0
    5.8845    2.6215   -1.3323 C   0  0  0  0  0  0  0  0  0  0  0  0
    6.4758    1.6373   -2.1251 C   0  0  0  0  0  0  0  0  0  0  0  0
    9.1562    0.6862   -5.4821 H   0  0  0  0  0  0  0  0  0  0  0  0
    9.5868    2.1206   -4.5420 H   0  0  0  0  0  0  0  0  0  0  0  0
    8.1927    2.1518   -5.6908 H   0  0  0  0  0  0  0  0  0  0  0  0
    8.0761    3.8222   -4.2018 H   0  0  0  0  0  0  0  0  0  0  0  0
    7.0403    5.4753   -2.7578 H   0  0  0  0  0  0  0  0  0  0  0  0
    5.6191    6.5553   -0.8150 H   0  0  0  0  0  0  0  0  0  0  0  0
    4.6770    8.1172    2.0927 H   0  0  0  0  0  0  0  0  0  0  0  0
    2.7918    9.3961    1.4628 H   0  0  0  0  0  0  0  0  0  0  0  0
    2.1953    7.7323    1.4858 H   0  0  0  0  0  0  0  0  0  0  0  0
    1.4490    8.8643   -0.5638 H   0  0  0  0  0  0  0  0  0  0  0  0
    2.5891    7.6024   -1.0272 H   0  0  0  0  0  0  0  0  0  0  0  0
    4.9665   10.9191   -2.4870 H   0  0  0  0  0  0  0  0  0  0  0  0
    7.4182   10.9990   -2.1381 H   0  0  0  0  0  0  0  0  0  0  0  0
    7.0419    8.2745    1.1671 H   0  0  0  0  0  0  0  0  0  0  0  0
    6.3076    0.5830   -1.9274 H   0  0  0  0  0  0  0  0  0  0  0  0
  1  2  1  0  0  0  0
  1 26  1  0  0  0  0
  1 27  1  0  0  0  0
  1 28  1  0  0  0  0
  2  3  1  0  0  0  0
  3  4  1  0  0  0  0
  3 25  2  0  0  0  0
  4  5  2  0  0  0  0
  4 29  1  0  0  0  0
  5  6  1  0  0  0  0
  5 30  1  0  0  0  0
  6  7  1  0  0  0  0
  6 24  2  0  0  0  0
  7  8  1  0  0  0  0
  7 22  2  0  0  0  0
  8  9  1  0  0  0  0
  8 31  1  0  0  0  0
  9 10  2  0  0  0  0
  9 11  1  0  0  0  0
 11 12  1  0  0  0  0
 11 21  1  0  0  0  0
 11 32  1  0  0  0  0
 12 13  1  0  0  0  0
 12 33  1  0  0  0  0
 12 34  1  0  0  0  0
 13 14  1  0  0  0  0
 13 35  1  0  0  0  0
 13 36  1  0  0  0  0
 14 15  1  0  0  0  0
 15 16  1  0  0  0  0
 15 21  2  0  0  0  0
 16 17  2  0  0  0  0
 16 37  1  0  0  0  0
 17 18  1  0  0  0  0
 17 38  1  0  0  0  0
 18 19  1  0  0  0  0
 18 20  2  0  0  0  0
 20 21  1  0  0  0  0
 20 39  1  0  0  0  0
 22 23  1  0  0  0  0
 23 24  1  0  0  0  0
 24 25  1  0  0  0  0
 25 40  1  0  0  0  0
M  END
$$$$
