
 OpenBabel07202414193D

 66 70  0  0  1  0  0  0  0  0999 V2000
   -3.2273   -2.8441   -6.6046 F   0  0  0  0  0  0  0  0  0  0  0  0
   -3.6453   -2.0765   -5.5895 C   0  0  0  0  0  0  0  0  0  0  0  0
   -4.5503   -1.0525   -5.8342 C   0  0  0  0  0  0  0  0  0  0  0  0
   -4.9650   -0.2430   -4.7792 C   0  0  0  0  0  0  0  0  0  0  0  0
   -4.4787   -0.4711   -3.4863 C   0  0  0  0  0  0  0  0  0  0  0  0
   -3.5782   -1.5178   -3.2314 C   0  0  0  0  0  0  0  0  0  0  0  0
   -2.9914   -1.7338   -1.8552 C   0  0  0  0  0  0  0  0  0  0  0  0
   -3.9941   -1.9410   -0.7097 C   0  0  0  0  0  0  0  0  0  0  0  0
   -4.8191   -3.1399   -0.8000 N   0  0  0  0  0  0  0  0  0  0  0  0
   -5.6714   -3.4663    0.2540 C   0  0  0  0  0  0  0  0  0  0  0  0
   -5.7095   -2.7765    1.2702 O   0  0  0  0  0  0  0  0  0  0  0  0
   -6.5248   -4.7632    0.0764 C   0  0  3  0  0  0  0  0  0  0  0  0
   -6.3205   -5.6478    1.2823 N   0  0  0  0  0  0  0  0  0  0  0  0
   -7.0181   -5.5029    2.5299 C   0  0  0  0  0  0  0  0  0  0  0  0
   -6.7174   -6.1360    3.5445 O   0  0  0  0  0  0  0  0  0  0  0  0
   -8.1981   -4.6568    2.6808 C   0  0  0  0  0  0  0  0  0  0  0  0
   -9.2395   -4.9763    3.5390 C   0  0  0  0  0  0  0  0  0  0  0  0
  -10.1629   -3.9840    3.4909 O   0  0  0  0  0  0  0  0  0  0  0  0
   -9.6300   -3.0961    2.6166 C   0  0  0  0  0  0  0  0  0  0  0  0
   -8.4633   -3.4343    2.1073 N   0  0  0  0  0  0  0  0  0  0  0  0
   -5.1585   -6.5593    1.2523 C   0  0  0  0  0  0  0  0  0  0  0  0
   -5.0352   -7.6123    2.1704 C   0  0  0  0  0  0  0  0  0  0  0  0
   -3.9073   -8.4325    2.2488 C   0  0  0  0  0  0  0  0  0  0  0  0
   -2.8952   -8.3427    1.3086 C   0  0  0  0  0  0  0  0  0  0  0  0
   -1.8301   -9.2066    1.2246 O   0  0  0  0  0  0  0  0  0  0  0  0
   -1.9588  -10.4194    1.9937 C   0  0  3  0  0  0  0  0  0  0  0  0
   -0.7111  -11.2628    1.8603 C   0  0  0  0  0  0  0  0  0  0  0  0
   -0.9898  -12.1117    0.6404 C   0  0  0  0  0  0  0  0  0  0  0  0
   -2.4028  -12.3152    0.5801 O   0  0  0  0  0  0  0  0  0  0  0  0
   -3.0370  -11.3512    1.4332 C   0  0  0  0  0  0  0  0  0  0  0  0
   -2.9895   -7.3389    0.3496 C   0  0  0  0  0  0  0  0  0  0  0  0
   -4.1009   -6.4613    0.3222 C   0  0  0  0  0  0  0  0  0  0  0  0
   -7.9381   -4.5194   -0.4605 C   0  0  0  0  0  0  0  0  0  0  0  0
   -8.2256   -3.4279   -1.2998 C   0  0  0  0  0  0  0  0  0  0  0  0
   -9.5175   -3.2240   -1.7893 C   0  0  0  0  0  0  0  0  0  0  0  0
  -10.5001   -4.1261   -1.4385 C   0  0  0  0  0  0  0  0  0  0  0  0
  -10.2670   -5.2157   -0.6807 N   0  0  0  0  0  0  0  0  0  0  0  0
   -8.9985   -5.3942   -0.2301 C   0  0  0  0  0  0  0  0  0  0  0  0
   -3.1546   -2.3118   -4.3074 C   0  0  0  0  0  0  0  0  0  0  0  0
   -4.9129   -0.8832   -6.8433 H   0  0  0  0  0  0  0  0  0  0  0  0
   -5.6553    0.5767   -4.9647 H   0  0  0  0  0  0  0  0  0  0  0  0
   -4.7938    0.1955   -2.6855 H   0  0  0  0  0  0  0  0  0  0  0  0
   -2.3796   -0.8501   -1.6249 H   0  0  0  0  0  0  0  0  0  0  0  0
   -2.2967   -2.5826   -1.8796 H   0  0  0  0  0  0  0  0  0  0  0  0
   -4.6659   -1.0830   -0.6144 H   0  0  0  0  0  0  0  0  0  0  0  0
   -3.4276   -2.0128    0.2279 H   0  0  0  0  0  0  0  0  0  0  0  0
   -4.7352   -3.7374   -1.6146 H   0  0  0  0  0  0  0  0  0  0  0  0
   -6.0932   -5.3122   -0.7697 H   0  0  0  0  0  0  0  0  0  0  0  0
   -9.4488   -5.8123    4.1956 H   0  0  0  0  0  0  0  0  0  0  0  0
  -10.2019   -2.2037    2.4220 H   0  0  0  0  0  0  0  0  0  0  0  0
   -5.8184   -7.8656    2.8729 H   0  0  0  0  0  0  0  0  0  0  0  0
   -3.8930   -9.1501    3.0614 H   0  0  0  0  0  0  0  0  0  0  0  0
   -2.0995  -10.1699    3.0515 H   0  0  0  0  0  0  0  0  0  0  0  0
   -0.6285  -11.9203    2.7354 H   0  0  0  0  0  0  0  0  0  0  0  0
    0.2165  -10.6926    1.7643 H   0  0  0  0  0  0  0  0  0  0  0  0
   -0.4946  -13.0855    0.6958 H   0  0  0  0  0  0  0  0  0  0  0  0
   -0.6754  -11.6099   -0.2789 H   0  0  0  0  0  0  0  0  0  0  0  0
   -3.5248  -11.9061    2.2410 H   0  0  0  0  0  0  0  0  0  0  0  0
   -3.8083  -10.8431    0.8472 H   0  0  0  0  0  0  0  0  0  0  0  0
   -2.2041   -7.2341   -0.3942 H   0  0  0  0  0  0  0  0  0  0  0  0
   -4.0658   -5.6950   -0.4412 H   0  0  0  0  0  0  0  0  0  0  0  0
   -7.4592   -2.7098   -1.5805 H   0  0  0  0  0  0  0  0  0  0  0  0
   -9.7465   -2.3748   -2.4263 H   0  0  0  0  0  0  0  0  0  0  0  0
  -11.5262   -3.9984   -1.7731 H   0  0  0  0  0  0  0  0  0  0  0  0
   -8.8805   -6.2896    0.3737 H   0  0  0  0  0  0  0  0  0  0  0  0
   -2.4257   -3.1056   -4.1709 H   0  0  0  0  0  0  0  0  0  0  0  0
  1  2  1  0  0  0  0
  2  3  1  0  0  0  0
  2 39  2  0  0  0  0
  3  4  2  0  0  0  0
  3 40  1  0  0  0  0
  4  5  1  0  0  0  0
  4 41  1  0  0  0  0
  5  6  2  0  0  0  0
  5 42  1  0  0  0  0
  6  7  1  0  0  0  0
  6 39  1  0  0  0  0
  7  8  1  0  0  0  0
  7 43  1  0  0  0  0
  7 44  1  0  0  0  0
  8  9  1  0  0  0  0
  8 45  1  0  0  0  0
  8 46  1  0  0  0  0
  9 10  1  0  0  0  0
  9 47  1  0  0  0  0
 10 11  2  0  0  0  0
 10 12  1  0  0  0  0
 12 13  1  0  0  0  0
 12 33  1  0  0  0  0
 12 48  1  0  0  0  0
 13 14  1  0  0  0  0
 13 21  1  0  0  0  0
 14 15  2  0  0  0  0
 14 16  1  0  0  0  0
 16 17  2  0  0  0  0
 16 20  1  0  0  0  0
 17 18  1  0  0  0  0
 17 49  1  0  0  0  0
 18 19  1  0  0  0  0
 19 20  2  0  0  0  0
 19 50  1  0  0  0  0
 21 22  1  0  0  0  0
 21 32  2  0  0  0  0
 22 23  2  0  0  0  0
 22 51  1  0  0  0  0
 23 24  1  0  0  0  0
 23 52  1  0  0  0  0
 24 25  1  0  0  0  0
 24 31  2  0  0  0  0
 25 26  1  0  0  0  0
 26 27  1  0  0  0  0
 26 30  1  0  0  0  0
 26 53  1  0  0  0  0
 27 28  1  0  0  0  0
 27 54  1  0  0  0  0
 27 55  1  0  0  0  0
 28 29  1  0  0  0  0
 28 56  1  0  0  0  0
 28 57  1  0  0  0  0
 29 30  1  0  0  0  0
 30 58  1  0  0  0  0
 30 59  1  0  0  0  0
 31 32  1  0  0  0  0
 31 60  1  0  0  0  0
 32 61  1  0  0  0  0
 33 34  1  0  0  0  0
 33 38  2  0  0  0  0
 34 35  2  0  0  0  0
 34 62  1  0  0  0  0
 35 36  1  0  0  0  0
 35 63  1  0  0  0  0
 36 37  2  0  0  0  0
 36 64  1  0  0  0  0
 37 38  1  0  0  0  0
 38 65  1  0  0  0  0
 39 66  1  0  0  0  0
M  END
$$$$
