
 OpenBabel07202414203D

 28 30  0  0  0  0  0  0  0  0999 V2000
    0.5348    1.1083    0.4532 C   0  0  0  0  0  0  0  0  0  0  0  0
    1.3055   -0.0534    0.4746 C   0  0  0  0  0  0  0  0  0  0  0  0
    0.7987   -1.2627   -0.0297 C   0  0  0  0  0  0  0  0  0  0  0  0
   -0.4869   -1.1998   -0.5688 C   0  0  0  0  0  0  0  0  0  0  0  0
   -1.2658   -0.0864   -0.6009 N   0  0  0  0  0  0  0  0  0  0  0  0
   -0.7365    1.0403   -0.0836 C   0  0  0  0  0  0  0  0  0  0  0  0
    1.5599   -2.5237    0.0144 C   0  0  0  0  0  0  0  0  0  0  0  0
    2.4641   -2.8020    1.0250 C   0  0  0  0  0  0  0  0  0  0  0  0
    3.1341   -3.9971    0.9424 C   0  0  0  0  0  0  0  0  0  0  0  0
    2.9482   -4.8821   -0.0486 N   0  0  0  0  0  0  0  0  0  0  0  0
    2.0234   -4.5555   -0.9683 C   0  0  0  0  0  0  0  0  0  0  0  0
    1.3307   -3.3991   -0.9885 N   0  0  0  0  0  0  0  0  0  0  0  0
    1.8328   -5.6536   -2.3435 S   0  0  0  0  0  0  0  0  0  0  0  0
    0.5256   -6.6443   -1.7369 C   0  0  0  0  0  0  0  0  0  0  0  0
    0.0460   -6.5699   -0.5119 N   0  0  0  0  0  0  0  0  0  0  0  0
   -0.9934   -7.4726   -0.3587 C   0  0  0  0  0  0  0  0  0  0  0  0
   -1.2754   -8.2174   -1.4772 C   0  0  0  0  0  0  0  0  0  0  0  0
   -0.2277   -7.8196   -2.7513 S   0  0  0  0  0  0  0  0  0  0  0  0
   -2.2983   -9.2040   -1.6184 N   0  3  0  0  0  0  0  0  0  0  0  0
   -3.0162   -9.3939   -0.6275 O   0  0  0  0  0  0  0  0  0  0  0  0
   -2.3995   -9.7922   -2.7013 O   0  5  0  0  0  0  0  0  0  0  0  0
    0.9201    2.0421    0.8485 H   0  0  0  0  0  0  0  0  0  0  0  0
    2.3122    0.0045    0.8805 H   0  0  0  0  0  0  0  0  0  0  0  0
   -0.9577   -2.0830   -0.9968 H   0  0  0  0  0  0  0  0  0  0  0  0
   -1.3800    1.9150   -0.1155 H   0  0  0  0  0  0  0  0  0  0  0  0
    2.6414   -2.1282    1.8529 H   0  0  0  0  0  0  0  0  0  0  0  0
    3.8655   -4.2832    1.6930 H   0  0  0  0  0  0  0  0  0  0  0  0
   -1.5081   -7.5332    0.5942 H   0  0  0  0  0  0  0  0  0  0  0  0
  1  2  1  0  0  0  0
  1  6  2  0  0  0  0
  1 22  1  0  0  0  0
  2  3  2  0  0  0  0
  2 23  1  0  0  0  0
  3  4  1  0  0  0  0
  3  7  1  0  0  0  0
  4  5  2  0  0  0  0
  4 24  1  0  0  0  0
  5  6  1  0  0  0  0
  6 25  1  0  0  0  0
  7  8  1  0  0  0  0
  7 12  2  0  0  0  0
  8  9  2  0  0  0  0
  8 26  1  0  0  0  0
  9 10  1  0  0  0  0
  9 27  1  0  0  0  0
 10 11  2  0  0  0  0
 11 12  1  0  0  0  0
 11 13  1  0  0  0  0
 13 14  1  0  0  0  0
 14 15  2  0  0  0  0
 14 18  1  0  0  0  0
 15 16  1  0  0  0  0
 16 17  2  0  0  0  0
 16 28  1  0  0  0  0
 17 18  1  0  0  0  0
 17 19  1  0  0  0  0
 19 20  2  0  0  0  0
 19 21  1  0  0  0  0
M  CHG  2  19   1  21  -1
M  END
$$$$
