
 OpenBabel07202414123D

 52 54  0  0  0  0  0  0  0  0999 V2000
    4.0513    0.4790    3.2275 C   0  0  0  0  0  0  0  0  0  0  0  0
    4.0974    0.2981    1.7049 C   0  0  0  0  0  0  0  0  0  0  0  0
    4.9461    1.4192    1.1008 C   0  0  0  0  0  0  0  0  0  0  0  0
    4.6113   -1.1232    1.3713 C   0  0  0  0  0  0  0  0  0  0  0  0
    4.6424   -1.4675   -0.1230 C   0  0  0  0  0  0  0  0  0  0  0  0
    5.2527   -2.7814   -0.4198 N   0  0  0  0  0  0  0  0  0  0  0  0
    4.3576   -3.8882   -0.7890 C   0  0  0  0  0  0  0  0  0  0  0  0
    3.9502   -4.8563    0.3021 C   0  0  0  0  0  0  0  0  0  0  0  0
    4.3730   -4.7680    1.6336 C   0  0  0  0  0  0  0  0  0  0  0  0
    3.8528   -5.6306    2.6057 C   0  0  0  0  0  0  0  0  0  0  0  0
    2.9209   -6.6075    2.2595 C   0  0  0  0  0  0  0  0  0  0  0  0
    2.5395   -6.7538    0.9298 C   0  0  0  0  0  0  0  0  0  0  0  0
    3.0568   -5.8910   -0.0398 C   0  0  0  0  0  0  0  0  0  0  0  0
    6.6520   -2.8349   -0.5344 C   0  0  0  0  0  0  0  0  0  0  0  0
    7.3319   -1.8375   -0.2919 O   0  0  0  0  0  0  0  0  0  0  0  0
    7.2540   -4.1513   -1.0298 C   0  0  0  0  0  0  0  0  0  0  0  0
    8.7561   -4.4003   -1.0284 C   0  0  0  0  0  0  0  0  0  0  0  0
    9.6845   -3.4943   -0.5270 C   0  0  0  0  0  0  0  0  0  0  0  0
   11.0186   -3.7330   -0.4226 N   0  0  0  0  0  0  0  0  0  0  0  0
   11.4622   -4.9203   -0.8663 C   0  0  0  0  0  0  0  0  0  0  0  0
   10.6602   -5.8848   -1.4672 C   0  0  0  0  0  0  0  0  0  0  0  0
   11.2056   -7.0703   -1.9861 C   0  0  0  0  0  0  0  0  0  0  0  0
   10.3952   -8.0225   -2.6022 C   0  0  0  0  0  0  0  0  0  0  0  0
    9.0263   -7.8132   -2.6704 C   0  0  0  0  0  0  0  0  0  0  0  0
    8.4689   -6.6426   -2.1401 C   0  0  0  0  0  0  0  0  0  0  0  0
    9.2674   -5.6334   -1.5388 C   0  0  0  0  0  0  0  0  0  0  0  0
    3.6881    1.4770    3.4962 H   0  0  0  0  0  0  0  0  0  0  0  0
    5.0460    0.3545    3.6699 H   0  0  0  0  0  0  0  0  0  0  0  0
    3.3808   -0.2541    3.6878 H   0  0  0  0  0  0  0  0  0  0  0  0
    3.0745    0.4035    1.3212 H   0  0  0  0  0  0  0  0  0  0  0  0
    5.9943    1.3359    1.4053 H   0  0  0  0  0  0  0  0  0  0  0  0
    4.5812    2.4005    1.4342 H   0  0  0  0  0  0  0  0  0  0  0  0
    4.8998    1.4188    0.0089 H   0  0  0  0  0  0  0  0  0  0  0  0
    3.9565   -1.8451    1.8738 H   0  0  0  0  0  0  0  0  0  0  0  0
    5.6099   -1.2584    1.8034 H   0  0  0  0  0  0  0  0  0  0  0  0
    5.2187   -0.7115   -0.6673 H   0  0  0  0  0  0  0  0  0  0  0  0
    3.6284   -1.4365   -0.5367 H   0  0  0  0  0  0  0  0  0  0  0  0
    4.8168   -4.4645   -1.5983 H   0  0  0  0  0  0  0  0  0  0  0  0
    3.4439   -3.4529   -1.2101 H   0  0  0  0  0  0  0  0  0  0  0  0
    5.0967   -4.0173    1.9415 H   0  0  0  0  0  0  0  0  0  0  0  0
    4.1658   -5.5304    3.6431 H   0  0  0  0  0  0  0  0  0  0  0  0
    2.4968   -7.2548    3.0222 H   0  0  0  0  0  0  0  0  0  0  0  0
    1.8289   -7.5268    0.6497 H   0  0  0  0  0  0  0  0  0  0  0  0
    2.7366   -6.0198   -1.0722 H   0  0  0  0  0  0  0  0  0  0  0  0
    6.9209   -4.2527   -2.0706 H   0  0  0  0  0  0  0  0  0  0  0  0
    6.8163   -4.9500   -0.4202 H   0  0  0  0  0  0  0  0  0  0  0  0
    9.4229   -2.5015   -0.1805 H   0  0  0  0  0  0  0  0  0  0  0  0
   12.5257   -5.0822   -0.7329 H   0  0  0  0  0  0  0  0  0  0  0  0
   12.2766   -7.2494   -1.9309 H   0  0  0  0  0  0  0  0  0  0  0  0
   10.8352   -8.9195   -3.0250 H   0  0  0  0  0  0  0  0  0  0  0  0
    8.3873   -8.5525   -3.1428 H   0  0  0  0  0  0  0  0  0  0  0  0
    7.3907   -6.5264   -2.2191 H   0  0  0  0  0  0  0  0  0  0  0  0
  1  2  1  0  0  0  0
  1 27  1  0  0  0  0
  1 28  1  0  0  0  0
  1 29  1  0  0  0  0
  2  3  1  0  0  0  0
  2  4  1  0  0  0  0
  2 30  1  0  0  0  0
  3 31  1  0  0  0  0
  3 32  1  0  0  0  0
  3 33  1  0  0  0  0
  4  5  1  0  0  0  0
  4 34  1  0  0  0  0
  4 35  1  0  0  0  0
  5  6  1  0  0  0  0
  5 36  1  0  0  0  0
  5 37  1  0  0  0  0
  6  7  1  0  0  0  0
  6 14  1  0  0  0  0
  7  8  1  0  0  0  0
  7 38  1  0  0  0  0
  7 39  1  0  0  0  0
  8  9  1  0  0  0  0
  8 13  2  0  0  0  0
  9 10  2  0  0  0  0
  9 40  1  0  0  0  0
 10 11  1  0  0  0  0
 10 41  1  0  0  0  0
 11 12  2  0  0  0  0
 11 42  1  0  0  0  0
 12 13  1  0  0  0  0
 12 43  1  0  0  0  0
 13 44  1  0  0  0  0
 14 15  2  0  0  0  0
 14 16  1  0  0  0  0
 16 17  1  0  0  0  0
 16 45  1  0  0  0  0
 16 46  1  0  0  0  0
 17 18  1  0  0  0  0
 17 26  2  0  0  0  0
 18 19  2  0  0  0  0
 18 47  1  0  0  0  0
 19 20  1  0  0  0  0
 20 21  2  0  0  0  0
 20 48  1  0  0  0  0
 21 22  1  0  0  0  0
 21 26  1  0  0  0  0
 22 23  2  0  0  0  0
 22 49  1  0  0  0  0
 23 24  1  0  0  0  0
 23 50  1  0  0  0  0
 24 25  2  0  0  0  0
 24 51  1  0  0  0  0
 25 26  1  0  0  0  0
 25 52  1  0  0  0  0
M  END
$$$$
