
 OpenBabel07202414183D

 49 52  0  0  0  0  0  0  0  0999 V2000
    1.4929   -0.3133    0.7892 F   0  0  0  0  0  0  0  0  0  0  0  0
    0.2272    0.1301    0.8228 C   0  0  0  0  0  0  0  0  0  0  0  0
   -0.0524    1.4908    0.7456 C   0  0  0  0  0  0  0  0  0  0  0  0
    1.2167    2.6463    0.6111 Cl  0  0  0  0  0  0  0  0  0  0  0  0
   -1.3752    1.9275    0.7890 C   0  0  0  0  0  0  0  0  0  0  0  0
   -2.4288    1.0021    0.9063 C   0  0  0  0  0  0  0  0  0  0  0  0
   -3.8519    1.4981    1.0111 C   0  0  0  0  0  0  0  0  0  0  0  0
   -4.1686    2.3282   -0.1496 N   0  0  0  0  0  0  0  0  0  0  0  0
   -5.2037    3.2631   -0.0083 C   0  0  0  0  0  0  0  0  0  0  0  0
   -5.2157    4.3798   -0.8486 C   0  0  0  0  0  0  0  0  0  0  0  0
   -6.2500    5.3138   -0.7877 C   0  0  0  0  0  0  0  0  0  0  0  0
   -6.2153    6.6977   -1.8038 Cl  0  0  0  0  0  0  0  0  0  0  0  0
   -7.3100    5.1346    0.1008 C   0  0  0  0  0  0  0  0  0  0  0  0
   -7.3446    4.0045    0.9233 C   0  0  0  0  0  0  0  0  0  0  0  0
   -8.5282    3.7359    1.8226 C   0  0  0  0  0  0  0  0  0  0  0  0
   -8.1943    3.5314    3.2911 C   0  0  0  0  0  0  0  0  0  0  0  0
   -8.7175    2.6193    3.9295 O   0  0  0  0  0  0  0  0  0  0  0  0
   -7.3668    4.4919    3.8401 N   0  0  0  0  0  0  0  0  0  0  0  0
   -6.9686    4.4811    5.1996 C   0  0  0  0  0  0  0  0  0  0  0  0
   -6.6189    3.2908    5.8420 C   0  0  0  0  0  0  0  0  0  0  0  0
   -6.1723    3.2097    7.1161 N   0  0  0  0  0  0  0  0  0  0  0  0
   -6.1014    4.3723    7.7983 C   0  0  0  0  0  0  0  0  0  0  0  0
   -6.4491    5.6215    7.2782 C   0  0  0  0  0  0  0  0  0  0  0  0
   -6.3942    6.7869    8.0642 C   0  0  0  0  0  0  0  0  0  0  0  0
   -6.7995    8.0153    7.5450 C   0  0  0  0  0  0  0  0  0  0  0  0
   -7.2612    8.0938    6.2371 C   0  0  0  0  0  0  0  0  0  0  0  0
   -7.3029    6.9471    5.4414 C   0  0  0  0  0  0  0  0  0  0  0  0
   -6.8920    5.6864    5.9369 C   0  0  0  0  0  0  0  0  0  0  0  0
   -6.2940    3.0765    0.8540 C   0  0  0  0  0  0  0  0  0  0  0  0
   -2.1297   -0.3661    0.9849 C   0  0  0  0  0  0  0  0  0  0  0  0
   -0.8023   -0.7995    0.9414 C   0  0  0  0  0  0  0  0  0  0  0  0
   -1.6001    2.9917    0.7328 H   0  0  0  0  0  0  0  0  0  0  0  0
   -3.9279    2.0678    1.9465 H   0  0  0  0  0  0  0  0  0  0  0  0
   -4.5515    0.6544    1.0676 H   0  0  0  0  0  0  0  0  0  0  0  0
   -4.3375    1.7541   -0.9670 H   0  0  0  0  0  0  0  0  0  0  0  0
   -4.3909    4.5271   -1.5508 H   0  0  0  0  0  0  0  0  0  0  0  0
   -8.1173    5.8601    0.1222 H   0  0  0  0  0  0  0  0  0  0  0  0
   -9.0120    2.8183    1.4610 H   0  0  0  0  0  0  0  0  0  0  0  0
   -9.2694    4.5399    1.7514 H   0  0  0  0  0  0  0  0  0  0  0  0
   -7.2419    5.3529    3.3236 H   0  0  0  0  0  0  0  0  0  0  0  0
   -6.6479    2.3365    5.3232 H   0  0  0  0  0  0  0  0  0  0  0  0
   -5.7591    4.2659    8.8247 H   0  0  0  0  0  0  0  0  0  0  0  0
   -6.0544    6.7391    9.0970 H   0  0  0  0  0  0  0  0  0  0  0  0
   -6.7715    8.9058    8.1667 H   0  0  0  0  0  0  0  0  0  0  0  0
   -7.6051    9.0442    5.8365 H   0  0  0  0  0  0  0  0  0  0  0  0
   -7.7069    7.0517    4.4388 H   0  0  0  0  0  0  0  0  0  0  0  0
   -6.3483    2.1837    1.4756 H   0  0  0  0  0  0  0  0  0  0  0  0
   -2.9240   -1.1027    1.0888 H   0  0  0  0  0  0  0  0  0  0  0  0
   -0.5619   -1.8565    1.0039 H   0  0  0  0  0  0  0  0  0  0  0  0
  1  2  1  0  0  0  0
  2  3  2  0  0  0  0
  2 31  1  0  0  0  0
  3  4  1  0  0  0  0
  3  5  1  0  0  0  0
  5  6  2  0  0  0  0
  5 32  1  0  0  0  0
  6  7  1  0  0  0  0
  6 30  1  0  0  0  0
  7  8  1  0  0  0  0
  7 33  1  0  0  0  0
  7 34  1  0  0  0  0
  8  9  1  0  0  0  0
  8 35  1  0  0  0  0
  9 10  2  0  0  0  0
  9 29  1  0  0  0  0
 10 11  1  0  0  0  0
 10 36  1  0  0  0  0
 11 12  1  0  0  0  0
 11 13  2  0  0  0  0
 13 14  1  0  0  0  0
 13 37  1  0  0  0  0
 14 15  1  0  0  0  0
 14 29  2  0  0  0  0
 15 16  1  0  0  0  0
 15 38  1  0  0  0  0
 15 39  1  0  0  0  0
 16 17  2  0  0  0  0
 16 18  1  0  0  0  0
 18 19  1  0  0  0  0
 18 40  1  0  0  0  0
 19 20  2  0  0  0  0
 19 28  1  0  0  0  0
 20 21  1  0  0  0  0
 20 41  1  0  0  0  0
 21 22  2  0  0  0  0
 22 23  1  0  0  0  0
 22 42  1  0  0  0  0
 23 24  2  0  0  0  0
 23 28  1  0  0  0  0
 24 25  1  0  0  0  0
 24 43  1  0  0  0  0
 25 26  2  0  0  0  0
 25 44  1  0  0  0  0
 26 27  1  0  0  0  0
 26 45  1  0  0  0  0
 27 28  2  0  0  0  0
 27 46  1  0  0  0  0
 29 47  1  0  0  0  0
 30 31  2  0  0  0  0
 30 48  1  0  0  0  0
 31 49  1  0  0  0  0
M  END
$$$$
