
 OpenBabel07202414183D

 37 38  0  0  0  0  0  0  0  0999 V2000
   -1.5002   -0.3038    3.2685 F   0  0  0  0  0  0  0  0  0  0  0  0
   -0.7543   -0.2008    2.1601 C   0  0  0  0  0  0  0  0  0  0  0  0
   -0.7370    1.0022    1.4625 C   0  0  0  0  0  0  0  0  0  0  0  0
    0.0121    1.0986    0.2896 C   0  0  0  0  0  0  0  0  0  0  0  0
    0.7285   -0.0087   -0.1715 C   0  0  0  0  0  0  0  0  0  0  0  0
    1.3934    0.1224   -1.3253 F   0  0  0  0  0  0  0  0  0  0  0  0
    0.7377   -1.2006    0.5551 C   0  0  0  0  0  0  0  0  0  0  0  0
    1.6510   -2.6131   -0.0017 S   0  0  0  0  0  0  0  0  0  0  0  0
    1.5335   -3.6061    1.0468 O   0  0  0  0  0  0  0  0  0  0  0  0
    1.2124   -2.9109   -1.3478 O   0  0  0  0  0  0  0  0  0  0  0  0
    3.3124   -2.1538   -0.0328 N   0  0  0  0  0  0  0  0  0  0  0  0
    3.8059   -1.4908    1.2076 C   0  0  0  0  0  0  0  0  0  0  0  0
    5.2034   -1.9395    1.6141 C   0  0  0  0  0  0  0  0  0  0  0  0
    6.3678   -1.5282    0.7149 C   0  0  0  0  0  0  0  0  0  0  0  0
    5.9936   -0.7753   -0.4730 N   0  0  0  0  0  0  0  0  0  0  0  0
    6.1178    0.6189   -0.4560 C   0  0  0  0  0  0  0  0  0  0  0  0
    6.5345    1.2015    0.5462 O   0  0  0  0  0  0  0  0  0  0  0  0
    5.7069    1.3607   -1.7244 C   0  0  0  0  0  0  0  0  0  0  0  0
    5.9929    3.1093   -1.5923 Cl  0  0  0  0  0  0  0  0  0  0  0  0
    5.2945   -1.5434   -1.5040 C   0  0  0  0  0  0  0  0  0  0  0  0
    3.7730   -1.5657   -1.3224 C   0  0  0  0  0  0  0  0  0  0  0  0
   -0.0208   -1.2989    1.7244 C   0  0  0  0  0  0  0  0  0  0  0  0
   -1.3146    1.8469    1.8272 H   0  0  0  0  0  0  0  0  0  0  0  0
    0.0325    2.0288   -0.2722 H   0  0  0  0  0  0  0  0  0  0  0  0
    3.1494   -1.7597    2.0444 H   0  0  0  0  0  0  0  0  0  0  0  0
    3.7464   -0.4024    1.1043 H   0  0  0  0  0  0  0  0  0  0  0  0
    5.2224   -3.0291    1.7413 H   0  0  0  0  0  0  0  0  0  0  0  0
    5.4034   -1.5291    2.6136 H   0  0  0  0  0  0  0  0  0  0  0  0
    6.9092   -2.4226    0.3822 H   0  0  0  0  0  0  0  0  0  0  0  0
    7.0950   -0.9574    1.3046 H   0  0  0  0  0  0  0  0  0  0  0  0
    4.6394    1.2277   -1.9064 H   0  0  0  0  0  0  0  0  0  0  0  0
    6.2874    1.0001   -2.5764 H   0  0  0  0  0  0  0  0  0  0  0  0
    5.6993   -2.5622   -1.5164 H   0  0  0  0  0  0  0  0  0  0  0  0
    5.5211   -1.1076   -2.4822 H   0  0  0  0  0  0  0  0  0  0  0  0
    3.3831   -2.1683   -2.1504 H   0  0  0  0  0  0  0  0  0  0  0  0
    3.3928   -0.5528   -1.4226 H   0  0  0  0  0  0  0  0  0  0  0  0
   -0.0713   -2.2234    2.2944 H   0  0  0  0  0  0  0  0  0  0  0  0
  1  2  1  0  0  0  0
  2  3  1  0  0  0  0
  2 22  2  0  0  0  0
  3  4  2  0  0  0  0
  3 23  1  0  0  0  0
  4  5  1  0  0  0  0
  4 24  1  0  0  0  0
  5  6  1  0  0  0  0
  5  7  2  0  0  0  0
  7  8  1  0  0  0  0
  7 22  1  0  0  0  0
  8  9  2  0  0  0  0
  8 10  2  0  0  0  0
  8 11  1  0  0  0  0
 11 12  1  0  0  0  0
 11 21  1  0  0  0  0
 12 13  1  0  0  0  0
 12 25  1  0  0  0  0
 12 26  1  0  0  0  0
 13 14  1  0  0  0  0
 13 27  1  0  0  0  0
 13 28  1  0  0  0  0
 14 15  1  0  0  0  0
 14 29  1  0  0  0  0
 14 30  1  0  0  0  0
 15 16  1  0  0  0  0
 15 20  1  0  0  0  0
 16 17  2  0  0  0  0
 16 18  1  0  0  0  0
 18 19  1  0  0  0  0
 18 31  1  0  0  0  0
 18 32  1  0  0  0  0
 20 21  1  0  0  0  0
 20 33  1  0  0  0  0
 20 34  1  0  0  0  0
 21 35  1  0  0  0  0
 21 36  1  0  0  0  0
 22 37  1  0  0  0  0
M  END
$$$$
