
 OpenBabel07202414143D

 49 52  0  0  1  0  0  0  0  0999 V2000
    5.5204   -2.9377    1.4649 C   0  0  0  0  0  0  0  0  0  0  0  0
    5.5935   -1.5408    1.1249 N   0  0  0  0  0  0  0  0  0  0  0  0
    4.6130   -0.6413    1.4609 C   0  0  0  0  0  0  0  0  0  0  0  0
    3.5910   -0.9391    2.0848 O   0  0  0  0  0  0  0  0  0  0  0  0
    4.8635    0.7823    0.9795 C   0  0  0  0  0  0  0  0  0  0  0  0
    5.5916    1.7221    1.9850 C   0  0  3  0  0  0  0  0  0  0  0  0
    7.0492    1.2195    2.2239 C   0  0  0  0  0  0  0  0  0  0  0  0
    7.4856    0.2398    1.6182 O   0  0  0  0  0  0  0  0  0  0  0  0
    7.8086    1.9986    3.0856 N   0  0  0  0  0  0  0  0  0  0  0  0
    9.1152    1.7151    3.5764 C   0  0  0  0  0  0  0  0  0  0  0  0
    9.7974    0.5365    3.2650 C   0  0  0  0  0  0  0  0  0  0  0  0
   10.9617    0.1427    3.8312 N   0  0  0  0  0  0  0  0  0  0  0  0
   11.5019    0.9805    4.7351 C   0  0  0  0  0  0  0  0  0  0  0  0
   10.9805    2.2294    5.0620 C   0  0  0  0  0  0  0  0  0  0  0  0
   11.6660    3.0778    5.9487 C   0  0  0  0  0  0  0  0  0  0  0  0
   11.1731    4.3460    6.2419 C   0  0  0  0  0  0  0  0  0  0  0  0
    9.9816    4.7670    5.6684 C   0  0  0  0  0  0  0  0  0  0  0  0
    9.2793    3.9197    4.8029 C   0  0  0  0  0  0  0  0  0  0  0  0
    9.7569    2.6259    4.4677 C   0  0  0  0  0  0  0  0  0  0  0  0
    4.8206    1.8127    3.3251 C   0  0  0  0  0  0  0  0  0  0  0  0
    3.5990    2.7035    3.1781 C   0  0  0  0  0  0  0  0  0  0  0  0
    3.9789    4.0447    2.8696 O   0  0  0  0  0  0  0  0  0  0  0  0
    4.8287    4.1626    1.8085 C   0  0  0  0  0  0  0  0  0  0  0  0
    4.8801    5.4280    1.2176 C   0  0  0  0  0  0  0  0  0  0  0  0
    5.7355    5.6735    0.1462 C   0  0  0  0  0  0  0  0  0  0  0  0
    6.5478    4.6516   -0.3291 C   0  0  0  0  0  0  0  0  0  0  0  0
    7.6340    4.9486   -1.6278 Cl  0  0  0  0  0  0  0  0  0  0  0  0
    6.5032    3.3826    0.2581 C   0  0  0  0  0  0  0  0  0  0  0  0
    5.6419    3.1197    1.3402 C   0  0  0  0  0  0  0  0  0  0  0  0
    6.5299   -3.3573    1.4285 H   0  0  0  0  0  0  0  0  0  0  0  0
    4.8884   -3.4432    0.7285 H   0  0  0  0  0  0  0  0  0  0  0  0
    5.0971   -3.0705    2.4626 H   0  0  0  0  0  0  0  0  0  0  0  0
    6.5117   -1.1565    0.9000 H   0  0  0  0  0  0  0  0  0  0  0  0
    3.8856    1.1913    0.6951 H   0  0  0  0  0  0  0  0  0  0  0  0
    5.4229    0.7167    0.0358 H   0  0  0  0  0  0  0  0  0  0  0  0
    7.3775    2.8489    3.4222 H   0  0  0  0  0  0  0  0  0  0  0  0
    9.4352   -0.1768    2.5344 H   0  0  0  0  0  0  0  0  0  0  0  0
   12.4124    0.6079    5.1987 H   0  0  0  0  0  0  0  0  0  0  0  0
   12.6050    2.7629    6.4009 H   0  0  0  0  0  0  0  0  0  0  0  0
   11.7259    5.0061    6.9055 H   0  0  0  0  0  0  0  0  0  0  0  0
    9.5988    5.7621    5.8839 H   0  0  0  0  0  0  0  0  0  0  0  0
    8.3654    4.3161    4.3691 H   0  0  0  0  0  0  0  0  0  0  0  0
    5.4535    2.2449    4.1107 H   0  0  0  0  0  0  0  0  0  0  0  0
    4.5292    0.8246    3.6913 H   0  0  0  0  0  0  0  0  0  0  0  0
    3.0526    2.7377    4.1276 H   0  0  0  0  0  0  0  0  0  0  0  0
    2.8934    2.3428    2.4205 H   0  0  0  0  0  0  0  0  0  0  0  0
    4.2407    6.2250    1.5921 H   0  0  0  0  0  0  0  0  0  0  0  0
    5.7620    6.6570   -0.3132 H   0  0  0  0  0  0  0  0  0  0  0  0
    7.1519    2.6001   -0.1399 H   0  0  0  0  0  0  0  0  0  0  0  0
  1  2  1  0  0  0  0
  1 30  1  0  0  0  0
  1 31  1  0  0  0  0
  1 32  1  0  0  0  0
  2  3  1  0  0  0  0
  2 33  1  0  0  0  0
  3  4  2  0  0  0  0
  3  5  1  0  0  0  0
  5  6  1  0  0  0  0
  5 34  1  0  0  0  0
  5 35  1  0  0  0  0
  6  7  1  0  0  0  0
  6 20  1  0  0  0  0
  6 29  1  0  0  0  0
  7  8  2  0  0  0  0
  7  9  1  0  0  0  0
  9 10  1  0  0  0  0
  9 36  1  0  0  0  0
 10 11  1  0  0  0  0
 10 19  2  0  0  0  0
 11 12  2  0  0  0  0
 11 37  1  0  0  0  0
 12 13  1  0  0  0  0
 13 14  2  0  0  0  0
 13 38  1  0  0  0  0
 14 15  1  0  0  0  0
 14 19  1  0  0  0  0
 15 16  2  0  0  0  0
 15 39  1  0  0  0  0
 16 17  1  0  0  0  0
 16 40  1  0  0  0  0
 17 18  2  0  0  0  0
 17 41  1  0  0  0  0
 18 19  1  0  0  0  0
 18 42  1  0  0  0  0
 20 21  1  0  0  0  0
 20 43  1  0  0  0  0
 20 44  1  0  0  0  0
 21 22  1  0  0  0  0
 21 45  1  0  0  0  0
 21 46  1  0  0  0  0
 22 23  1  0  0  0  0
 23 24  1  0  0  0  0
 23 29  2  0  0  0  0
 24 25  2  0  0  0  0
 24 47  1  0  0  0  0
 25 26  1  0  0  0  0
 25 48  1  0  0  0  0
 26 27  1  0  0  0  0
 26 28  2  0  0  0  0
 28 29  1  0  0  0  0
 28 49  1  0  0  0  0
M  END
$$$$
