
 OpenBabel07202414193D

 43 45  0  0  0  0  0  0  0  0999 V2000
    2.1722    2.4033    0.9775 O   0  0  0  0  0  0  0  0  0  0  0  0
    2.9170    2.1396   -0.1079 C   0  0  0  0  0  0  0  0  0  0  0  0
    2.4876    2.3399   -1.2362 O   0  0  0  0  0  0  0  0  0  0  0  0
    4.2774    1.5901    0.1531 C   0  0  0  0  0  0  0  0  0  0  0  0
    5.1417    1.6933   -0.8786 C   0  0  0  0  0  0  0  0  0  0  0  0
    4.5679    0.7469    1.3674 C   0  0  0  0  0  0  0  0  0  0  0  0
    5.2126    1.5319    2.4490 N   0  0  0  0  0  0  0  0  0  0  0  0
    4.4003    2.0806    3.4560 C   0  0  0  0  0  0  0  0  0  0  0  0
    3.1756    2.0581    3.3257 O   0  0  0  0  0  0  0  0  0  0  0  0
    5.0491    2.6133    4.5525 N   0  0  0  0  0  0  0  0  0  0  0  0
    4.4705    3.0920    5.7603 C   0  0  0  0  0  0  0  0  0  0  0  0
    3.1986    2.6947    6.1763 C   0  0  0  0  0  0  0  0  0  0  0  0
    2.6408    3.0346    7.3615 N   0  0  0  0  0  0  0  0  0  0  0  0
    3.3781    3.8159    8.1767 C   0  0  0  0  0  0  0  0  0  0  0  0
    4.6480    4.3038    7.8747 C   0  0  0  0  0  0  0  0  0  0  0  0
    5.3297    5.1372    8.7821 C   0  0  0  0  0  0  0  0  0  0  0  0
    6.5769    5.6651    8.4646 C   0  0  0  0  0  0  0  0  0  0  0  0
    7.1531    5.3616    7.2393 C   0  0  0  0  0  0  0  0  0  0  0  0
    6.4926    4.5127    6.3388 C   0  0  0  0  0  0  0  0  0  0  0  0
    5.2208    3.9470    6.6305 C   0  0  0  0  0  0  0  0  0  0  0  0
    6.6333    1.5367    2.5094 C   0  0  0  0  0  0  0  0  0  0  0  0
    7.3234    2.7533    2.6090 C   0  0  0  0  0  0  0  0  0  0  0  0
    8.6961    2.7697    2.8537 C   0  0  0  0  0  0  0  0  0  0  0  0
    9.3945    1.5684    2.9622 C   0  0  0  0  0  0  0  0  0  0  0  0
    8.7205    0.3579    2.8078 C   0  0  0  0  0  0  0  0  0  0  0  0
    9.5854   -1.1228    2.9495 Cl  0  0  0  0  0  0  0  0  0  0  0  0
    7.3450    0.3336    2.5775 C   0  0  0  0  0  0  0  0  0  0  0  0
    2.5688    2.2883    1.8719 H   0  0  0  0  0  0  0  0  0  0  0  0
    4.8752    2.2152   -1.7970 H   0  0  0  0  0  0  0  0  0  0  0  0
    6.1230    1.2310   -0.8600 H   0  0  0  0  0  0  0  0  0  0  0  0
    5.2179   -0.0831    1.0750 H   0  0  0  0  0  0  0  0  0  0  0  0
    3.6516    0.2793    1.7393 H   0  0  0  0  0  0  0  0  0  0  0  0
    6.0495    2.6956    4.5107 H   0  0  0  0  0  0  0  0  0  0  0  0
    2.5807    2.0270    5.5885 H   0  0  0  0  0  0  0  0  0  0  0  0
    2.8915    4.0606    9.1178 H   0  0  0  0  0  0  0  0  0  0  0  0
    4.8814    5.3933    9.7403 H   0  0  0  0  0  0  0  0  0  0  0  0
    7.0872    6.3199    9.1664 H   0  0  0  0  0  0  0  0  0  0  0  0
    8.1165    5.7936    6.9774 H   0  0  0  0  0  0  0  0  0  0  0  0
    6.9812    4.3325    5.3873 H   0  0  0  0  0  0  0  0  0  0  0  0
    6.7874    3.6978    2.5215 H   0  0  0  0  0  0  0  0  0  0  0  0
    9.2178    3.7166    2.9718 H   0  0  0  0  0  0  0  0  0  0  0  0
   10.4615    1.5809    3.1701 H   0  0  0  0  0  0  0  0  0  0  0  0
    6.8343   -0.6240    2.5274 H   0  0  0  0  0  0  0  0  0  0  0  0
  1  2  1  0  0  0  0
  1 28  1  0  0  0  0
  2  3  2  0  0  0  0
  2  4  1  0  0  0  0
  4  5  2  0  0  0  0
  4  6  1  0  0  0  0
  5 29  1  0  0  0  0
  5 30  1  0  0  0  0
  6  7  1  0  0  0  0
  6 31  1  0  0  0  0
  6 32  1  0  0  0  0
  7  8  1  0  0  0  0
  7 21  1  0  0  0  0
  8  9  2  0  0  0  0
  8 10  1  0  0  0  0
 10 11  1  0  0  0  0
 10 33  1  0  0  0  0
 11 12  1  0  0  0  0
 11 20  2  0  0  0  0
 12 13  2  0  0  0  0
 12 34  1  0  0  0  0
 13 14  1  0  0  0  0
 14 15  2  0  0  0  0
 14 35  1  0  0  0  0
 15 16  1  0  0  0  0
 15 20  1  0  0  0  0
 16 17  2  0  0  0  0
 16 36  1  0  0  0  0
 17 18  1  0  0  0  0
 17 37  1  0  0  0  0
 18 19  2  0  0  0  0
 18 38  1  0  0  0  0
 19 20  1  0  0  0  0
 19 39  1  0  0  0  0
 21 22  1  0  0  0  0
 21 27  2  0  0  0  0
 22 23  2  0  0  0  0
 22 40  1  0  0  0  0
 23 24  1  0  0  0  0
 23 41  1  0  0  0  0
 24 25  2  0  0  0  0
 24 42  1  0  0  0  0
 25 26  1  0  0  0  0
 25 27  1  0  0  0  0
 27 43  1  0  0  0  0
M  END
$$$$
