
 OpenBabel07202414193D

 60 64  0  0  1  0  0  0  0  0999 V2000
    0.9162   -0.0115    0.5470 O   0  0  0  0  0  0  0  0  0  0  0  0
    2.0958    0.2720    0.3508 C   0  0  0  0  0  0  0  0  0  0  0  0
    2.6772    0.6829   -1.0191 C   0  0  0  0  0  0  0  0  0  0  0  0
    1.6860    1.1458   -2.0170 N   0  0  0  0  0  0  0  0  0  0  0  0
    0.7124    0.0959   -2.3763 C   0  0  0  0  0  0  0  0  0  0  0  0
   -0.3463    0.5675   -3.3511 C   0  0  0  0  0  0  0  0  0  0  0  0
   -1.1457   -0.3871   -3.9954 C   0  0  0  0  0  0  0  0  0  0  0  0
   -2.1291    0.0055   -4.9034 C   0  0  0  0  0  0  0  0  0  0  0  0
   -2.2984    1.3564   -5.1897 C   0  0  0  0  0  0  0  0  0  0  0  0
   -3.4710    1.8431   -6.3537 Cl  0  0  0  0  0  0  0  0  0  0  0  0
   -1.5288    2.3175   -4.5394 C   0  0  0  0  0  0  0  0  0  0  0  0
   -0.5964    1.9303   -3.5634 C   0  0  0  0  0  0  0  0  0  0  0  0
    0.1301    2.9770   -2.7387 C   0  0  1  0  0  0  0  0  0  0  0  0
   -0.8548    3.9846   -2.1331 C   0  0  0  0  0  0  0  0  0  0  0  0
   -0.7700    5.1742   -2.4322 O   0  0  0  0  0  0  0  0  0  0  0  0
   -1.7804    3.4464   -1.2432 N   0  0  0  0  0  0  0  0  0  0  0  0
   -2.7213    4.1917   -0.4802 C   0  0  0  0  0  0  0  0  0  0  0  0
   -3.0830    5.4930   -0.8337 C   0  0  0  0  0  0  0  0  0  0  0  0
   -3.8482    6.3158   -0.0821 N   0  0  0  0  0  0  0  0  0  0  0  0
   -4.3156    5.8053    1.0719 C   0  0  0  0  0  0  0  0  0  0  0  0
   -4.1325    4.4883    1.4859 C   0  0  0  0  0  0  0  0  0  0  0  0
   -4.7480    4.0200    2.6580 C   0  0  0  0  0  0  0  0  0  0  0  0
   -4.5822    2.7018    3.0692 C   0  0  0  0  0  0  0  0  0  0  0  0
   -3.7742    1.8503    2.3277 C   0  0  0  0  0  0  0  0  0  0  0  0
   -3.1417    2.3116    1.1656 C   0  0  0  0  0  0  0  0  0  0  0  0
   -3.3129    3.6410    0.6964 C   0  0  0  0  0  0  0  0  0  0  0  0
    1.0202    2.3935   -1.6190 C   0  0  0  0  0  0  0  0  0  0  0  0
    3.0323    0.1980    1.3598 N   0  0  0  0  0  0  0  0  0  0  0  0
    2.6658   -0.2197    2.6959 C   0  0  0  0  0  0  0  0  0  0  0  0
    2.7294    0.9260    3.6689 C   0  0  0  0  0  0  0  0  0  0  0  0
    1.6096    1.7443    3.8791 C   0  0  0  0  0  0  0  0  0  0  0  0
    1.6679    2.8029    4.7872 C   0  0  0  0  0  0  0  0  0  0  0  0
    2.8469    3.0592    5.4850 C   0  0  0  0  0  0  0  0  0  0  0  0
    3.9688    2.2594    5.2751 C   0  0  0  0  0  0  0  0  0  0  0  0
    3.9125    1.1994    4.3693 C   0  0  0  0  0  0  0  0  0  0  0  0
    3.2208   -0.1796   -1.4246 H   0  0  0  0  0  0  0  0  0  0  0  0
    3.4236    1.4727   -0.8635 H   0  0  0  0  0  0  0  0  0  0  0  0
    0.1772   -0.3067   -1.5219 H   0  0  0  0  0  0  0  0  0  0  0  0
    1.2651   -0.7264   -2.8442 H   0  0  0  0  0  0  0  0  0  0  0  0
   -1.0168   -1.4464   -3.7795 H   0  0  0  0  0  0  0  0  0  0  0  0
   -2.7601   -0.7422   -5.3801 H   0  0  0  0  0  0  0  0  0  0  0  0
   -1.6710    3.3703   -4.7785 H   0  0  0  0  0  0  0  0  0  0  0  0
    0.7824    3.5249   -3.4361 H   0  0  0  0  0  0  0  0  0  0  0  0
   -1.6842    2.4655   -1.0171 H   0  0  0  0  0  0  0  0  0  0  0  0
   -2.7847    5.9364   -1.7785 H   0  0  0  0  0  0  0  0  0  0  0  0
   -4.8725    6.5153    1.6775 H   0  0  0  0  0  0  0  0  0  0  0  0
   -5.3788    4.6807    3.2501 H   0  0  0  0  0  0  0  0  0  0  0  0
   -5.0859    2.3438    3.9642 H   0  0  0  0  0  0  0  0  0  0  0  0
   -3.6372    0.8205    2.6492 H   0  0  0  0  0  0  0  0  0  0  0  0
   -2.5226    1.5993    0.6290 H   0  0  0  0  0  0  0  0  0  0  0  0
    0.4502    2.2346   -0.6968 H   0  0  0  0  0  0  0  0  0  0  0  0
    1.7767    3.1520   -1.3726 H   0  0  0  0  0  0  0  0  0  0  0  0
    3.9672    0.5544    1.2139 H   0  0  0  0  0  0  0  0  0  0  0  0
    3.3665   -1.0079    2.9928 H   0  0  0  0  0  0  0  0  0  0  0  0
    1.6664   -0.6694    2.7103 H   0  0  0  0  0  0  0  0  0  0  0  0
    0.6827    1.5548    3.3400 H   0  0  0  0  0  0  0  0  0  0  0  0
    0.7926    3.4268    4.9514 H   0  0  0  0  0  0  0  0  0  0  0  0
    2.8910    3.8825    6.1934 H   0  0  0  0  0  0  0  0  0  0  0  0
    4.8873    2.4595    5.8207 H   0  0  0  0  0  0  0  0  0  0  0  0
    4.7946    0.5809    4.2218 H   0  0  0  0  0  0  0  0  0  0  0  0
  1  2  2  0  0  0  0
  2  3  1  0  0  0  0
  2 28  1  0  0  0  0
  3  4  1  0  0  0  0
  3 36  1  0  0  0  0
  3 37  1  0  0  0  0
  4  5  1  0  0  0  0
  4 27  1  0  0  0  0
  5  6  1  0  0  0  0
  5 38  1  0  0  0  0
  5 39  1  0  0  0  0
  6  7  1  0  0  0  0
  6 12  2  0  0  0  0
  7  8  2  0  0  0  0
  7 40  1  0  0  0  0
  8  9  1  0  0  0  0
  8 41  1  0  0  0  0
  9 10  1  0  0  0  0
  9 11  2  0  0  0  0
 11 12  1  0  0  0  0
 11 42  1  0  0  0  0
 12 13  1  0  0  0  0
 13 27  1  0  0  0  0
 13 14  1  0  0  0  0
 13 43  1  6  0  0  0
 14 15  2  0  0  0  0
 14 16  1  0  0  0  0
 16 17  1  0  0  0  0
 16 44  1  0  0  0  0
 17 18  1  0  0  0  0
 17 26  2  0  0  0  0
 18 19  2  0  0  0  0
 18 45  1  0  0  0  0
 19 20  1  0  0  0  0
 20 21  2  0  0  0  0
 20 46  1  0  0  0  0
 21 22  1  0  0  0  0
 21 26  1  0  0  0  0
 22 23  2  0  0  0  0
 22 47  1  0  0  0  0
 23 24  1  0  0  0  0
 23 48  1  0  0  0  0
 24 25  2  0  0  0  0
 24 49  1  0  0  0  0
 25 26  1  0  0  0  0
 25 50  1  0  0  0  0
 27 51  1  0  0  0  0
 27 52  1  0  0  0  0
 28 29  1  0  0  0  0
 28 53  1  0  0  0  0
 29 30  1  0  0  0  0
 29 54  1  0  0  0  0
 29 55  1  0  0  0  0
 30 31  1  0  0  0  0
 30 35  2  0  0  0  0
 31 32  2  0  0  0  0
 31 56  1  0  0  0  0
 32 33  1  0  0  0  0
 32 57  1  0  0  0  0
 33 34  2  0  0  0  0
 33 58  1  0  0  0  0
 34 35  1  0  0  0  0
 34 59  1  0  0  0  0
 35 60  1  0  0  0  0
M  END
$$$$
