
 OpenBabel07202414153D

 63 66  0  0  1  0  0  0  0  0999 V2000
    2.7247   -0.0846    3.0027 C   0  0  0  0  0  0  0  0  0  0  0  0
    2.4346    1.1215    1.7309 S   0  0  0  0  0  0  0  0  0  0  0  0
    2.5556    0.4569    0.4448 O   0  0  0  0  0  0  0  0  0  0  0  0
    1.1955    1.8024    2.0711 O   0  0  0  0  0  0  0  0  0  0  0  0
    3.7605    2.3137    1.9263 C   0  0  0  0  0  0  0  0  0  0  0  0
    5.1164    1.6640    1.8682 C   0  0  0  0  0  0  0  0  0  0  0  0
    5.5576    1.0232    0.7151 C   0  0  0  0  0  0  0  0  0  0  0  0
    6.8189    0.4180    0.6660 C   0  0  0  0  0  0  0  0  0  0  0  0
    7.7342    0.4791    1.7293 C   0  0  0  0  0  0  0  0  0  0  0  0
    9.0845   -0.0846    1.6105 N   0  0  0  0  0  0  0  0  0  0  0  0
    9.8820   -0.4489    2.8304 C   0  0  3  0  0  0  0  0  0  0  0  0
   10.8389    0.7072    3.2724 C   0  0  0  0  0  0  0  0  0  0  0  0
   11.9417    0.4899    3.7790 O   0  0  0  0  0  0  0  0  0  0  0  0
   10.2786    1.9733    3.3073 N   0  0  0  0  0  0  0  0  0  0  0  0
   11.0122    3.0828    3.8787 C   0  0  0  0  0  0  0  0  0  0  0  0
   10.1147    4.2864    4.1728 C   0  0  0  0  0  0  0  0  0  0  0  0
   10.9584    5.4575    4.6054 C   0  0  0  0  0  0  0  0  0  0  0  0
   11.1818    5.7239    5.9642 C   0  0  0  0  0  0  0  0  0  0  0  0
   12.0714    6.7304    6.3502 C   0  0  0  0  0  0  0  0  0  0  0  0
   12.7446    7.4749    5.3826 C   0  0  0  0  0  0  0  0  0  0  0  0
   12.5073    7.2226    4.0375 C   0  0  0  0  0  0  0  0  0  0  0  0
   13.1627    7.9274    3.1061 F   0  0  0  0  0  0  0  0  0  0  0  0
   11.6200    6.2306    3.6413 C   0  0  0  0  0  0  0  0  0  0  0  0
    9.1347   -1.0583    4.0271 C   0  0  0  0  0  0  0  0  0  0  0  0
    9.5422   -0.8443    5.3578 C   0  0  0  0  0  0  0  0  0  0  0  0
    8.8787   -1.4567    6.4144 C   0  0  0  0  0  0  0  0  0  0  0  0
    7.8165   -2.2848    6.1191 C   0  0  0  0  0  0  0  0  0  0  0  0
    7.3950   -2.5390    4.8635 N   0  0  0  0  0  0  0  0  0  0  0  0
    8.0757   -1.9414    3.8537 C   0  0  0  0  0  0  0  0  0  0  0  0
    9.6649   -0.2275    0.2994 C   0  0  0  0  0  0  0  0  0  0  0  0
    9.0689    0.0922   -0.7302 O   0  0  0  0  0  0  0  0  0  0  0  0
   11.0355   -0.7177    0.0970 C   0  0  0  0  0  0  0  0  0  0  0  0
   11.5427   -1.0550   -1.1469 C   0  0  0  0  0  0  0  0  0  0  0  0
   12.8514   -1.3931   -1.0136 O   0  0  0  0  0  0  0  0  0  0  0  0
   13.0875   -1.2341    0.3146 C   0  0  0  0  0  0  0  0  0  0  0  0
   12.0505   -0.8404    1.0208 N   0  0  0  0  0  0  0  0  0  0  0  0
    7.2655    1.1161    2.8901 C   0  0  0  0  0  0  0  0  0  0  0  0
    5.9888    1.7063    2.9581 C   0  0  0  0  0  0  0  0  0  0  0  0
    1.9375   -0.8383    2.9365 H   0  0  0  0  0  0  0  0  0  0  0  0
    2.6741    0.4110    3.9731 H   0  0  0  0  0  0  0  0  0  0  0  0
    3.6959   -0.5575    2.8552 H   0  0  0  0  0  0  0  0  0  0  0  0
    3.5952    2.8117    2.8878 H   0  0  0  0  0  0  0  0  0  0  0  0
    3.6550    3.0608    1.1326 H   0  0  0  0  0  0  0  0  0  0  0  0
    4.9278    0.9631   -0.1732 H   0  0  0  0  0  0  0  0  0  0  0  0
    7.0253   -0.1275   -0.2507 H   0  0  0  0  0  0  0  0  0  0  0  0
   10.5271   -1.2834    2.5461 H   0  0  0  0  0  0  0  0  0  0  0  0
    9.5618    2.1764    2.6219 H   0  0  0  0  0  0  0  0  0  0  0  0
   11.8072    3.3376    3.1694 H   0  0  0  0  0  0  0  0  0  0  0  0
   11.4981    2.7469    4.8043 H   0  0  0  0  0  0  0  0  0  0  0  0
    9.3779    4.0364    4.9475 H   0  0  0  0  0  0  0  0  0  0  0  0
    9.5321    4.5605    3.2843 H   0  0  0  0  0  0  0  0  0  0  0  0
   10.6852    5.1336    6.7321 H   0  0  0  0  0  0  0  0  0  0  0  0
   12.2546    6.9200    7.4049 H   0  0  0  0  0  0  0  0  0  0  0  0
   13.4588    8.2406    5.6666 H   0  0  0  0  0  0  0  0  0  0  0  0
   11.4755    6.0475    2.5799 H   0  0  0  0  0  0  0  0  0  0  0  0
   10.3975   -0.2150    5.6009 H   0  0  0  0  0  0  0  0  0  0  0  0
    9.1981   -1.3009    7.4393 H   0  0  0  0  0  0  0  0  0  0  0  0
    7.2668   -2.7922    6.9084 H   0  0  0  0  0  0  0  0  0  0  0  0
    7.7088   -2.2031    2.8628 H   0  0  0  0  0  0  0  0  0  0  0  0
   11.1339   -1.0824   -2.1460 H   0  0  0  0  0  0  0  0  0  0  0  0
   14.0934   -1.4383    0.6537 H   0  0  0  0  0  0  0  0  0  0  0  0
    7.8714    1.2062    3.7860 H   0  0  0  0  0  0  0  0  0  0  0  0
    5.6987    2.2086    3.8798 H   0  0  0  0  0  0  0  0  0  0  0  0
  1  2  1  0  0  0  0
  1 39  1  0  0  0  0
  1 40  1  0  0  0  0
  1 41  1  0  0  0  0
  2  3  2  0  0  0  0
  2  4  2  0  0  0  0
  2  5  1  0  0  0  0
  5  6  1  0  0  0  0
  5 42  1  0  0  0  0
  5 43  1  0  0  0  0
  6  7  1  0  0  0  0
  6 38  2  0  0  0  0
  7  8  2  0  0  0  0
  7 44  1  0  0  0  0
  8  9  1  0  0  0  0
  8 45  1  0  0  0  0
  9 10  1  0  0  0  0
  9 37  2  0  0  0  0
 10 11  1  0  0  0  0
 10 30  1  0  0  0  0
 11 12  1  0  0  0  0
 11 24  1  0  0  0  0
 11 46  1  0  0  0  0
 12 13  2  0  0  0  0
 12 14  1  0  0  0  0
 14 15  1  0  0  0  0
 14 47  1  0  0  0  0
 15 16  1  0  0  0  0
 15 48  1  0  0  0  0
 15 49  1  0  0  0  0
 16 17  1  0  0  0  0
 16 50  1  0  0  0  0
 16 51  1  0  0  0  0
 17 18  1  0  0  0  0
 17 23  2  0  0  0  0
 18 19  2  0  0  0  0
 18 52  1  0  0  0  0
 19 20  1  0  0  0  0
 19 53  1  0  0  0  0
 20 21  2  0  0  0  0
 20 54  1  0  0  0  0
 21 22  1  0  0  0  0
 21 23  1  0  0  0  0
 23 55  1  0  0  0  0
 24 25  1  0  0  0  0
 24 29  2  0  0  0  0
 25 26  2  0  0  0  0
 25 56  1  0  0  0  0
 26 27  1  0  0  0  0
 26 57  1  0  0  0  0
 27 28  2  0  0  0  0
 27 58  1  0  0  0  0
 28 29  1  0  0  0  0
 29 59  1  0  0  0  0
 30 31  2  0  0  0  0
 30 32  1  0  0  0  0
 32 33  2  0  0  0  0
 32 36  1  0  0  0  0
 33 34  1  0  0  0  0
 33 60  1  0  0  0  0
 34 35  1  0  0  0  0
 35 36  2  0  0  0  0
 35 61  1  0  0  0  0
 37 38  1  0  0  0  0
 37 62  1  0  0  0  0
 38 63  1  0  0  0  0
M  END
$$$$
