
 OpenBabel07202414193D

 45 48  0  0  0  0  0  0  0  0999 V2000
    1.1997   -0.5275   -0.3660 O   0  0  0  0  0  0  0  0  0  0  0  0
    2.2672   -0.0631    0.0410 C   0  0  0  0  0  0  0  0  0  0  0  0
    2.8053    1.2294   -0.5572 C   0  0  0  0  0  0  0  0  0  0  0  0
    2.3766    2.5013    0.1408 C   0  0  0  0  0  0  0  0  0  0  0  0
    1.1110    2.5780    0.7290 C   0  0  0  0  0  0  0  0  0  0  0  0
    0.6109    3.6744    1.3344 N   0  0  0  0  0  0  0  0  0  0  0  0
    1.3921    4.7732    1.3331 C   0  0  0  0  0  0  0  0  0  0  0  0
    2.6613    4.8420    0.7627 C   0  0  0  0  0  0  0  0  0  0  0  0
    3.4070    6.0349    0.7927 C   0  0  0  0  0  0  0  0  0  0  0  0
    4.6700    6.0986    0.2111 C   0  0  0  0  0  0  0  0  0  0  0  0
    5.1959    4.9736   -0.4091 C   0  0  0  0  0  0  0  0  0  0  0  0
    4.4598    3.7843   -0.4470 C   0  0  0  0  0  0  0  0  0  0  0  0
    3.1758    3.6800    0.1421 C   0  0  0  0  0  0  0  0  0  0  0  0
    3.0164   -0.6988    1.0137 N   0  0  0  0  0  0  0  0  0  0  0  0
    2.6276   -2.0417    1.4674 C   0  0  0  0  0  0  0  0  0  0  0  0
    2.3491   -2.0917    2.9836 C   0  0  0  0  0  0  0  0  0  0  0  0
    3.4746   -1.4855    3.7193 N   0  0  0  0  0  0  0  0  0  0  0  0
    4.1517   -2.1527    4.7175 C   0  0  0  0  0  0  0  0  0  0  0  0
    3.5247   -3.0936    5.5419 C   0  0  0  0  0  0  0  0  0  0  0  0
    4.2291   -3.7678    6.5423 C   0  0  0  0  0  0  0  0  0  0  0  0
    5.5720   -3.4861    6.7042 C   0  0  0  0  0  0  0  0  0  0  0  0
    6.2351   -2.5909    5.9499 N   0  0  0  0  0  0  0  0  0  0  0  0
    5.5108   -1.9563    4.9911 C   0  0  0  0  0  0  0  0  0  0  0  0
    3.8332   -0.1242    3.2876 C   0  0  0  0  0  0  0  0  0  0  0  0
    4.1269   -0.1036    1.7747 C   0  0  0  0  0  0  0  0  0  0  0  0
    2.4575    1.2782   -1.5974 H   0  0  0  0  0  0  0  0  0  0  0  0
    3.8927    1.1326   -0.6173 H   0  0  0  0  0  0  0  0  0  0  0  0
    0.4242    1.7337    0.7252 H   0  0  0  0  0  0  0  0  0  0  0  0
    0.9444    5.6384    1.8161 H   0  0  0  0  0  0  0  0  0  0  0  0
    3.0018    6.9265    1.2674 H   0  0  0  0  0  0  0  0  0  0  0  0
    5.2374    7.0255    0.2371 H   0  0  0  0  0  0  0  0  0  0  0  0
    6.1793    5.0185   -0.8712 H   0  0  0  0  0  0  0  0  0  0  0  0
    4.9150    2.9403   -0.9577 H   0  0  0  0  0  0  0  0  0  0  0  0
    3.4698   -2.7049    1.2287 H   0  0  0  0  0  0  0  0  0  0  0  0
    1.7581   -2.4147    0.9178 H   0  0  0  0  0  0  0  0  0  0  0  0
    2.1782   -3.1381    3.2572 H   0  0  0  0  0  0  0  0  0  0  0  0
    1.4342   -1.5326    3.2130 H   0  0  0  0  0  0  0  0  0  0  0  0
    2.4621   -3.2942    5.4439 H   0  0  0  0  0  0  0  0  0  0  0  0
    3.7344   -4.4890    7.1814 H   0  0  0  0  0  0  0  0  0  0  0  0
    6.1635   -3.9840    7.4654 H   0  0  0  0  0  0  0  0  0  0  0  0
    6.1068   -1.2707    4.3967 H   0  0  0  0  0  0  0  0  0  0  0  0
    4.6823    0.2945    3.8366 H   0  0  0  0  0  0  0  0  0  0  0  0
    2.9788    0.5329    3.4955 H   0  0  0  0  0  0  0  0  0  0  0  0
    5.0215   -0.6965    1.5545 H   0  0  0  0  0  0  0  0  0  0  0  0
    4.3221    0.9250    1.4690 H   0  0  0  0  0  0  0  0  0  0  0  0
  1  2  2  0  0  0  0
  2  3  1  0  0  0  0
  2 14  1  0  0  0  0
  3  4  1  0  0  0  0
  3 26  1  0  0  0  0
  3 27  1  0  0  0  0
  4  5  1  0  0  0  0
  4 13  2  0  0  0  0
  5  6  2  0  0  0  0
  5 28  1  0  0  0  0
  6  7  1  0  0  0  0
  7  8  2  0  0  0  0
  7 29  1  0  0  0  0
  8  9  1  0  0  0  0
  8 13  1  0  0  0  0
  9 10  2  0  0  0  0
  9 30  1  0  0  0  0
 10 11  1  0  0  0  0
 10 31  1  0  0  0  0
 11 12  2  0  0  0  0
 11 32  1  0  0  0  0
 12 13  1  0  0  0  0
 12 33  1  0  0  0  0
 14 15  1  0  0  0  0
 14 25  1  0  0  0  0
 15 16  1  0  0  0  0
 15 34  1  0  0  0  0
 15 35  1  0  0  0  0
 16 17  1  0  0  0  0
 16 36  1  0  0  0  0
 16 37  1  0  0  0  0
 17 18  1  0  0  0  0
 17 24  1  0  0  0  0
 18 19  1  0  0  0  0
 18 23  2  0  0  0  0
 19 20  2  0  0  0  0
 19 38  1  0  0  0  0
 20 21  1  0  0  0  0
 20 39  1  0  0  0  0
 21 22  2  0  0  0  0
 21 40  1  0  0  0  0
 22 23  1  0  0  0  0
 23 41  1  0  0  0  0
 24 25  1  0  0  0  0
 24 42  1  0  0  0  0
 24 43  1  0  0  0  0
 25 44  1  0  0  0  0
 25 45  1  0  0  0  0
M  END
$$$$
