
 OpenBabel07202414143D

 46 49  0  0  1  0  0  0  0  0999 V2000
    3.4230   -0.0902   -0.1682 C   0  0  0  0  0  0  0  0  0  0  0  0
    1.9985    0.1870   -0.1805 N   0  0  0  0  0  0  0  0  0  0  0  0
    1.5460    1.5395   -0.4925 C   0  0  0  0  0  0  0  0  0  0  0  0
    0.2980    1.8968    0.3113 C   0  0  2  0  0  0  0  0  0  0  0  0
    0.6991    2.1770    1.7630 C   0  0  0  0  0  0  0  0  0  0  0  0
    0.8712    3.3465    2.1103 O   0  0  0  0  0  0  0  0  0  0  0  0
    0.9511    1.0701    2.5590 N   0  0  0  0  0  0  0  0  0  0  0  0
    1.3625    1.0692    3.9195 C   0  0  0  0  0  0  0  0  0  0  0  0
    1.3204    2.2293    4.7021 C   0  0  0  0  0  0  0  0  0  0  0  0
    1.6829    2.3034    6.0041 N   0  0  0  0  0  0  0  0  0  0  0  0
    2.1091    1.1569    6.5676 C   0  0  0  0  0  0  0  0  0  0  0  0
    2.1903   -0.0681    5.9102 C   0  0  0  0  0  0  0  0  0  0  0  0
    2.6458   -1.2093    6.5997 C   0  0  0  0  0  0  0  0  0  0  0  0
    2.7469   -2.4344    5.9497 C   0  0  0  0  0  0  0  0  0  0  0  0
    2.4023   -2.5297    4.6091 C   0  0  0  0  0  0  0  0  0  0  0  0
    1.9450   -1.4001    3.9160 C   0  0  0  0  0  0  0  0  0  0  0  0
    1.8155   -0.1317    4.5460 C   0  0  0  0  0  0  0  0  0  0  0  0
   -0.7485    0.8197    0.1274 C   0  0  0  0  0  0  0  0  0  0  0  0
   -2.1160    1.1343    0.1782 C   0  0  0  0  0  0  0  0  0  0  0  0
   -3.0887    0.1386   -0.0048 C   0  0  0  0  0  0  0  0  0  0  0  0
   -4.5517    0.5014   -0.0139 C   0  0  0  0  0  0  0  0  0  0  0  0
   -4.9245    1.0908    1.2219 O   0  0  0  0  0  0  0  0  0  0  0  0
   -2.6773   -1.1849   -0.2113 C   0  0  0  0  0  0  0  0  0  0  0  0
   -1.3182   -1.5080   -0.2576 C   0  0  0  0  0  0  0  0  0  0  0  0
   -0.3536   -0.5080   -0.1097 C   0  0  0  0  0  0  0  0  0  0  0  0
    1.0962   -0.8709   -0.1381 C   0  0  0  0  0  0  0  0  0  0  0  0
    1.4380   -2.0442   -0.0312 O   0  0  0  0  0  0  0  0  0  0  0  0
    4.0028    0.8353   -0.2164 H   0  0  0  0  0  0  0  0  0  0  0  0
    3.6777   -0.7338   -1.0142 H   0  0  0  0  0  0  0  0  0  0  0  0
    3.6629   -0.6116    0.7633 H   0  0  0  0  0  0  0  0  0  0  0  0
    1.3350    1.5700   -1.5695 H   0  0  0  0  0  0  0  0  0  0  0  0
    2.3493    2.2558   -0.2849 H   0  0  0  0  0  0  0  0  0  0  0  0
   -0.1035    2.8371   -0.0917 H   0  0  0  0  0  0  0  0  0  0  0  0
    0.9317    0.1690    2.1108 H   0  0  0  0  0  0  0  0  0  0  0  0
    0.9624    3.1795    4.3176 H   0  0  0  0  0  0  0  0  0  0  0  0
    2.3951    1.2594    7.6126 H   0  0  0  0  0  0  0  0  0  0  0  0
    2.9264   -1.1445    7.6452 H   0  0  0  0  0  0  0  0  0  0  0  0
    3.1020   -3.3078    6.4910 H   0  0  0  0  0  0  0  0  0  0  0  0
    2.4948   -3.4850    4.0914 H   0  0  0  0  0  0  0  0  0  0  0  0
    1.7065   -1.5431    2.8653 H   0  0  0  0  0  0  0  0  0  0  0  0
   -2.4367    2.1632    0.3472 H   0  0  0  0  0  0  0  0  0  0  0  0
   -5.1836   -0.3778   -0.1764 H   0  0  0  0  0  0  0  0  0  0  0  0
   -4.7556    1.2129   -0.8211 H   0  0  0  0  0  0  0  0  0  0  0  0
   -4.6487    0.4768    1.9238 H   0  0  0  0  0  0  0  0  0  0  0  0
   -3.4118   -1.9771   -0.3445 H   0  0  0  0  0  0  0  0  0  0  0  0
   -1.0154   -2.5417   -0.4151 H   0  0  0  0  0  0  0  0  0  0  0  0
  1  2  1  0  0  0  0
  1 28  1  0  0  0  0
  1 29  1  0  0  0  0
  1 30  1  0  0  0  0
  2  3  1  0  0  0  0
  2 26  1  0  0  0  0
  3  4  1  0  0  0  0
  3 31  1  0  0  0  0
  3 32  1  0  0  0  0
  4 18  1  0  0  0  0
  4  5  1  0  0  0  0
  4 33  1  6  0  0  0
  5  6  2  0  0  0  0
  5  7  1  0  0  0  0
  7  8  1  0  0  0  0
  7 34  1  0  0  0  0
  8  9  1  0  0  0  0
  8 17  2  0  0  0  0
  9 10  2  0  0  0  0
  9 35  1  0  0  0  0
 10 11  1  0  0  0  0
 11 12  2  0  0  0  0
 11 36  1  0  0  0  0
 12 13  1  0  0  0  0
 12 17  1  0  0  0  0
 13 14  2  0  0  0  0
 13 37  1  0  0  0  0
 14 15  1  0  0  0  0
 14 38  1  0  0  0  0
 15 16  2  0  0  0  0
 15 39  1  0  0  0  0
 16 17  1  0  0  0  0
 16 40  1  0  0  0  0
 18 19  1  0  0  0  0
 18 25  2  0  0  0  0
 19 20  2  0  0  0  0
 19 41  1  0  0  0  0
 20 21  1  0  0  0  0
 20 23  1  0  0  0  0
 21 22  1  0  0  0  0
 21 42  1  0  0  0  0
 21 43  1  0  0  0  0
 22 44  1  0  0  0  0
 23 24  2  0  0  0  0
 23 45  1  0  0  0  0
 24 25  1  0  0  0  0
 24 46  1  0  0  0  0
 25 26  1  0  0  0  0
 26 27  2  0  0  0  0
M  END
$$$$
