
 OpenBabel07202414193D

 44 47  0  0  1  0  0  0  0  0999 V2000
    1.2695   -0.4438    0.8809 O   0  0  0  0  0  0  0  0  0  0  0  0
    2.2198    0.0662    0.2815 C   0  0  0  0  0  0  0  0  0  0  0  0
    2.6355   -0.4710   -1.0774 C   0  0  0  0  0  0  0  0  0  0  0  0
    1.8035    0.0749   -2.2061 C   0  0  0  0  0  0  0  0  0  0  0  0
    2.2278    1.2434   -2.8400 C   0  0  0  0  0  0  0  0  0  0  0  0
    1.5944    1.8278   -3.8750 N   0  0  0  0  0  0  0  0  0  0  0  0
    0.4712    1.2146   -4.3060 C   0  0  0  0  0  0  0  0  0  0  0  0
   -0.0643    0.0484   -3.7570 C   0  0  0  0  0  0  0  0  0  0  0  0
   -1.2391   -0.5345   -4.2672 C   0  0  0  0  0  0  0  0  0  0  0  0
   -1.7600   -1.6958   -3.7004 C   0  0  0  0  0  0  0  0  0  0  0  0
   -1.1229   -2.2754   -2.6110 C   0  0  0  0  0  0  0  0  0  0  0  0
    0.0413   -1.7006   -2.0946 C   0  0  0  0  0  0  0  0  0  0  0  0
    0.6079   -0.5347   -2.6613 C   0  0  0  0  0  0  0  0  0  0  0  0
    2.9514    1.0882    0.8498 N   0  0  0  0  0  0  0  0  0  0  0  0
    2.7054    1.4837    2.2284 C   0  0  0  0  0  0  0  0  0  0  0  0
    4.0111    2.0997    2.7328 C   0  0  0  0  0  0  0  0  0  0  0  0
    5.0509    1.8346    1.6347 C   0  0  1  0  0  0  0  0  0  0  0  0
    5.8170    2.9609    1.5106 F   0  0  0  0  0  0  0  0  0  0  0  0
    5.9017    0.5883    1.8620 C   0  0  0  0  0  0  0  0  0  0  0  0
    5.3504   -0.7011    1.9767 C   0  0  0  0  0  0  0  0  0  0  0  0
    6.1647   -1.8293    2.0948 C   0  0  0  0  0  0  0  0  0  0  0  0
    7.5484   -1.6881    2.1269 C   0  0  0  0  0  0  0  0  0  0  0  0
    8.1110   -0.4173    2.0477 C   0  0  0  0  0  0  0  0  0  0  0  0
    9.8213   -0.2401    2.1048 Cl  0  0  0  0  0  0  0  0  0  0  0  0
    7.3004    0.7120    1.9127 C   0  0  0  0  0  0  0  0  0  0  0  0
    4.1814    1.7087    0.3744 C   0  0  0  0  0  0  0  0  0  0  0  0
    2.5681   -1.5647   -1.0336 H   0  0  0  0  0  0  0  0  0  0  0  0
    3.6953   -0.3085   -1.2817 H   0  0  0  0  0  0  0  0  0  0  0  0
    3.1331    1.7575   -2.5292 H   0  0  0  0  0  0  0  0  0  0  0  0
   -0.0086    1.7091   -5.1472 H   0  0  0  0  0  0  0  0  0  0  0  0
   -1.7535   -0.0860   -5.1140 H   0  0  0  0  0  0  0  0  0  0  0  0
   -2.6650   -2.1420   -4.1033 H   0  0  0  0  0  0  0  0  0  0  0  0
   -1.5302   -3.1740   -2.1541 H   0  0  0  0  0  0  0  0  0  0  0  0
    0.4915   -2.1781   -1.2272 H   0  0  0  0  0  0  0  0  0  0  0  0
    2.4021    0.6240    2.8342 H   0  0  0  0  0  0  0  0  0  0  0  0
    1.8934    2.2191    2.2378 H   0  0  0  0  0  0  0  0  0  0  0  0
    4.2996    1.6861    3.7053 H   0  0  0  0  0  0  0  0  0  0  0  0
    3.8778    3.1793    2.8739 H   0  0  0  0  0  0  0  0  0  0  0  0
    4.2756   -0.8617    1.9666 H   0  0  0  0  0  0  0  0  0  0  0  0
    5.7152   -2.8178    2.1592 H   0  0  0  0  0  0  0  0  0  0  0  0
    8.1788   -2.5684    2.2166 H   0  0  0  0  0  0  0  0  0  0  0  0
    7.7641    1.6944    1.8373 H   0  0  0  0  0  0  0  0  0  0  0  0
    4.6771    1.1638   -0.4285 H   0  0  0  0  0  0  0  0  0  0  0  0
    3.9153    2.7021   -0.0069 H   0  0  0  0  0  0  0  0  0  0  0  0
  1  2  2  0  0  0  0
  2  3  1  0  0  0  0
  2 14  1  0  0  0  0
  3  4  1  0  0  0  0
  3 27  1  0  0  0  0
  3 28  1  0  0  0  0
  4  5  1  0  0  0  0
  4 13  2  0  0  0  0
  5  6  2  0  0  0  0
  5 29  1  0  0  0  0
  6  7  1  0  0  0  0
  7  8  2  0  0  0  0
  7 30  1  0  0  0  0
  8  9  1  0  0  0  0
  8 13  1  0  0  0  0
  9 10  2  0  0  0  0
  9 31  1  0  0  0  0
 10 11  1  0  0  0  0
 10 32  1  0  0  0  0
 11 12  2  0  0  0  0
 11 33  1  0  0  0  0
 12 13  1  0  0  0  0
 12 34  1  0  0  0  0
 14 15  1  0  0  0  0
 14 26  1  0  0  0  0
 15 16  1  0  0  0  0
 15 35  1  0  0  0  0
 15 36  1  0  0  0  0
 16 17  1  0  0  0  0
 16 37  1  0  0  0  0
 16 38  1  0  0  0  0
 17 18  1  6  0  0  0
 17 19  1  0  0  0  0
 17 26  1  0  0  0  0
 19 20  1  0  0  0  0
 19 25  2  0  0  0  0
 20 21  2  0  0  0  0
 20 39  1  0  0  0  0
 21 22  1  0  0  0  0
 21 40  1  0  0  0  0
 22 23  2  0  0  0  0
 22 41  1  0  0  0  0
 23 24  1  0  0  0  0
 23 25  1  0  0  0  0
 25 42  1  0  0  0  0
 26 43  1  0  0  0  0
 26 44  1  0  0  0  0
M  END
$$$$
