
 OpenBabel07202414143D

 51 54  0  0  1  0  0  0  0  0999 V2000
    1.9943    0.6461    1.8675 C   0  0  0  0  0  0  0  0  0  0  0  0
    3.3190    1.0955    1.5378 O   0  0  0  0  0  0  0  0  0  0  0  0
    3.7713    0.8543    0.2837 C   0  0  0  0  0  0  0  0  0  0  0  0
    3.1607    0.3406   -0.6384 O   0  0  0  0  0  0  0  0  0  0  0  0
    5.1751    1.3269    0.1985 C   0  0  0  0  0  0  0  0  0  0  0  0
    5.8809    1.1889   -0.9377 C   0  0  0  0  0  0  0  0  0  0  0  0
    7.3079    1.6237   -1.0057 C   0  0  0  0  0  0  0  0  0  0  0  0
    8.0718    1.1584   -0.1604 O   0  0  0  0  0  0  0  0  0  0  0  0
    7.7147    2.5215   -2.0254 N   0  0  0  0  0  0  0  0  0  0  0  0
    6.9871    3.4938   -2.7516 C   0  0  0  0  0  0  0  0  0  0  0  0
    7.4685    4.0541   -3.7386 O   0  0  0  0  0  0  0  0  0  0  0  0
    5.5459    3.8331   -2.3297 C   0  0  2  0  0  0  0  0  0  0  0  0
    4.5610    3.0981   -3.2402 C   0  0  0  0  0  0  0  0  0  0  0  0
    4.5748    3.7119   -4.6344 C   0  0  0  0  0  0  0  0  0  0  0  0
    4.2666    5.1035   -4.6539 O   0  0  0  0  0  0  0  0  0  0  0  0
    4.7026    5.8495   -3.5964 C   0  0  0  0  0  0  0  0  0  0  0  0
    4.5015    7.2254   -3.7119 C   0  0  0  0  0  0  0  0  0  0  0  0
    4.8238    8.0763   -2.6546 C   0  0  0  0  0  0  0  0  0  0  0  0
    5.3297    7.5429   -1.4730 C   0  0  0  0  0  0  0  0  0  0  0  0
    5.6720    8.5796   -0.1434 Cl  0  0  0  0  0  0  0  0  0  0  0  0
    5.5566    6.1712   -1.3560 C   0  0  0  0  0  0  0  0  0  0  0  0
    5.2611    5.3145   -2.4301 C   0  0  0  0  0  0  0  0  0  0  0  0
    9.1277    2.4364   -2.3952 C   0  0  0  0  0  0  0  0  0  0  0  0
    9.6025    1.2399   -2.9448 C   0  0  0  0  0  0  0  0  0  0  0  0
   10.8310    1.0669   -3.4873 N   0  0  0  0  0  0  0  0  0  0  0  0
   11.6792    2.1136   -3.3946 C   0  0  0  0  0  0  0  0  0  0  0  0
   11.3857    3.3127   -2.7487 C   0  0  0  0  0  0  0  0  0  0  0  0
   12.3942    4.2691   -2.5300 C   0  0  0  0  0  0  0  0  0  0  0  0
   12.1076    5.4527   -1.8642 C   0  0  0  0  0  0  0  0  0  0  0  0
   10.7978    5.7289   -1.4929 C   0  0  0  0  0  0  0  0  0  0  0  0
    9.7852    4.7853   -1.7146 C   0  0  0  0  0  0  0  0  0  0  0  0
   10.0571    3.5211   -2.2901 C   0  0  0  0  0  0  0  0  0  0  0  0
    1.4574    1.4731    2.3450 H   0  0  0  0  0  0  0  0  0  0  0  0
    2.0824   -0.1650    2.5937 H   0  0  0  0  0  0  0  0  0  0  0  0
    1.4146    0.3023    1.0087 H   0  0  0  0  0  0  0  0  0  0  0  0
    5.5827    1.8038    1.0814 H   0  0  0  0  0  0  0  0  0  0  0  0
    5.4778    0.6814   -1.8072 H   0  0  0  0  0  0  0  0  0  0  0  0
    5.3772    3.5632   -1.2873 H   0  0  0  0  0  0  0  0  0  0  0  0
    3.5510    3.1853   -2.8188 H   0  0  0  0  0  0  0  0  0  0  0  0
    4.7929    2.0343   -3.3274 H   0  0  0  0  0  0  0  0  0  0  0  0
    3.8225    3.2060   -5.2492 H   0  0  0  0  0  0  0  0  0  0  0  0
    5.5326    3.5538   -5.1413 H   0  0  0  0  0  0  0  0  0  0  0  0
    4.0894    7.6326   -4.6316 H   0  0  0  0  0  0  0  0  0  0  0  0
    4.6656    9.1459   -2.7580 H   0  0  0  0  0  0  0  0  0  0  0  0
    5.9498    5.7742   -0.4230 H   0  0  0  0  0  0  0  0  0  0  0  0
    8.9737    0.3580   -3.0126 H   0  0  0  0  0  0  0  0  0  0  0  0
   12.6499    1.9506   -3.8621 H   0  0  0  0  0  0  0  0  0  0  0  0
   13.4197    4.0724   -2.8395 H   0  0  0  0  0  0  0  0  0  0  0  0
   12.9045    6.1558   -1.6332 H   0  0  0  0  0  0  0  0  0  0  0  0
   10.5620    6.6744   -1.0107 H   0  0  0  0  0  0  0  0  0  0  0  0
    8.7786    5.0523   -1.4092 H   0  0  0  0  0  0  0  0  0  0  0  0
  1  2  1  0  0  0  0
  1 33  1  0  0  0  0
  1 34  1  0  0  0  0
  1 35  1  0  0  0  0
  2  3  1  0  0  0  0
  3  4  2  0  0  0  0
  3  5  1  0  0  0  0
  5  6  2  0  0  0  0
  5 36  1  0  0  0  0
  6  7  1  0  0  0  0
  6 37  1  0  0  0  0
  7  8  2  0  0  0  0
  7  9  1  0  0  0  0
  9 10  1  0  0  0  0
  9 23  1  0  0  0  0
 10 11  2  0  0  0  0
 10 12  1  0  0  0  0
 12 13  1  0  0  0  0
 12 22  1  0  0  0  0
 12 38  1  1  0  0  0
 13 14  1  0  0  0  0
 13 39  1  0  0  0  0
 13 40  1  0  0  0  0
 14 15  1  0  0  0  0
 14 41  1  0  0  0  0
 14 42  1  0  0  0  0
 15 16  1  0  0  0  0
 16 17  1  0  0  0  0
 16 22  2  0  0  0  0
 17 18  2  0  0  0  0
 17 43  1  0  0  0  0
 18 19  1  0  0  0  0
 18 44  1  0  0  0  0
 19 20  1  0  0  0  0
 19 21  2  0  0  0  0
 21 22  1  0  0  0  0
 21 45  1  0  0  0  0
 23 24  1  0  0  0  0
 23 32  2  0  0  0  0
 24 25  2  0  0  0  0
 24 46  1  0  0  0  0
 25 26  1  0  0  0  0
 26 27  2  0  0  0  0
 26 47  1  0  0  0  0
 27 28  1  0  0  0  0
 27 32  1  0  0  0  0
 28 29  2  0  0  0  0
 28 48  1  0  0  0  0
 29 30  1  0  0  0  0
 29 49  1  0  0  0  0
 30 31  2  0  0  0  0
 30 50  1  0  0  0  0
 31 32  1  0  0  0  0
 31 51  1  0  0  0  0
M  END
$$$$
