
 OpenBabel07202414183D

 61 66  0  0  1  0  0  0  0  0999 V2000
    2.8285   -4.3779    3.8858 F   0  0  0  0  0  0  0  0  0  0  0  0
    2.1454   -3.4000    3.1683 C   0  0  0  0  0  0  0  0  0  0  0  0
    1.9825   -2.0808    3.8682 C   0  0  0  0  0  0  0  0  0  0  0  0
    3.2667   -1.4572    4.1160 N   0  0  0  0  0  0  0  0  0  0  0  0
    3.7677   -0.5204    3.2376 C   0  0  0  0  0  0  0  0  0  0  0  0
    3.1745   -0.1881    2.2075 O   0  0  0  0  0  0  0  0  0  0  0  0
    5.1174    0.0912    3.5998 C   0  0  0  0  0  0  0  0  0  0  0  0
    5.3653    0.1631    5.0572 N   0  0  0  0  0  0  0  0  0  0  0  0
    4.4311    1.0495    5.7692 C   0  0  0  0  0  0  0  0  0  0  0  0
    4.7115    2.5322    5.6685 C   0  0  0  0  0  0  0  0  0  0  0  0
    3.6620    3.4327    5.9349 C   0  0  0  0  0  0  0  0  0  0  0  0
    3.8783    4.8107    5.9348 C   0  0  0  0  0  0  0  0  0  0  0  0
    5.1502    5.3023    5.6802 C   0  0  0  0  0  0  0  0  0  0  0  0
    5.4376    6.9987    5.6915 Cl  0  0  0  0  0  0  0  0  0  0  0  0
    6.2021    4.4261    5.4201 C   0  0  0  0  0  0  0  0  0  0  0  0
    6.0033    3.0283    5.4126 C   0  0  0  0  0  0  0  0  0  0  0  0
    7.1514    2.0636    5.0916 C   0  0  3  0  0  0  0  0  0  0  0  0
    8.3745    2.3287    5.9840 C   0  0  0  0  0  0  0  0  0  0  0  0
    9.3775    3.0709    5.1375 C   0  0  0  0  0  0  0  0  0  0  0  0
    8.8403    3.2035    3.8218 N   0  0  0  0  0  0  0  0  0  0  0  0
    9.4371    4.0284    2.7958 C   0  0  0  0  0  0  0  0  0  0  0  0
    8.7099    4.2768    1.6196 C   0  0  0  0  0  0  0  0  0  0  0  0
    9.1530    4.9754    0.5478 N   0  0  0  0  0  0  0  0  0  0  0  0
   10.3753    5.5204    0.6557 C   0  0  0  0  0  0  0  0  0  0  0  0
   11.1621    5.4728    1.8008 C   0  0  0  0  0  0  0  0  0  0  0  0
   12.3647    6.2088    1.8355 C   0  0  0  0  0  0  0  0  0  0  0  0
   13.1702    6.2217    2.9670 C   0  0  0  0  0  0  0  0  0  0  0  0
   12.8108    5.4487    4.0503 C   0  0  0  0  0  0  0  0  0  0  0  0
   11.6341    4.6915    4.0058 C   0  0  0  0  0  0  0  0  0  0  0  0
   10.7205    4.6974    2.9067 C   0  0  0  0  0  0  0  0  0  0  0  0
    7.7028    2.3839    3.6776 C   0  0  0  0  0  0  0  0  0  0  0  0
    7.1869    2.0434    2.6311 O   0  0  0  0  0  0  0  0  0  0  0  0
    6.7520    0.5782    5.3226 C   0  0  0  0  0  0  0  0  0  0  0  0
    1.0300   -3.9159    2.2948 C   0  0  0  0  0  0  0  0  0  0  0  0
    2.3214   -3.4654    1.6711 C   0  0  0  0  0  0  0  0  0  0  0  0
    1.5081   -2.2422    4.8435 H   0  0  0  0  0  0  0  0  0  0  0  0
    1.3434   -1.4035    3.2965 H   0  0  0  0  0  0  0  0  0  0  0  0
    3.8548   -1.7663    4.8703 H   0  0  0  0  0  0  0  0  0  0  0  0
    5.1449    1.0755    3.1410 H   0  0  0  0  0  0  0  0  0  0  0  0
    5.8744   -0.5570    3.1349 H   0  0  0  0  0  0  0  0  0  0  0  0
    4.4746    0.7896    6.8360 H   0  0  0  0  0  0  0  0  0  0  0  0
    3.3974    0.8494    5.4651 H   0  0  0  0  0  0  0  0  0  0  0  0
    2.6613    3.0601    6.1478 H   0  0  0  0  0  0  0  0  0  0  0  0
    3.0548    5.4902    6.1353 H   0  0  0  0  0  0  0  0  0  0  0  0
    7.1802    4.8534    5.2154 H   0  0  0  0  0  0  0  0  0  0  0  0
    8.8466    1.4000    6.3306 H   0  0  0  0  0  0  0  0  0  0  0  0
    8.1321    2.8948    6.8910 H   0  0  0  0  0  0  0  0  0  0  0  0
   10.2854    2.4616    5.0648 H   0  0  0  0  0  0  0  0  0  0  0  0
    9.5644    4.0505    5.5800 H   0  0  0  0  0  0  0  0  0  0  0  0
    7.6816    3.9486    1.4929 H   0  0  0  0  0  0  0  0  0  0  0  0
   10.7151    6.0327   -0.2417 H   0  0  0  0  0  0  0  0  0  0  0  0
   12.6693    6.8086    0.9798 H   0  0  0  0  0  0  0  0  0  0  0  0
   14.0731    6.8246    2.9992 H   0  0  0  0  0  0  0  0  0  0  0  0
   13.4334    5.4247    4.9416 H   0  0  0  0  0  0  0  0  0  0  0  0
   11.4740    4.1013    4.8933 H   0  0  0  0  0  0  0  0  0  0  0  0
    6.9060    0.3487    6.3883 H   0  0  0  0  0  0  0  0  0  0  0  0
    7.4500   -0.0869    4.7970 H   0  0  0  0  0  0  0  0  0  0  0  0
    0.1569   -3.2944    2.1409 H   0  0  0  0  0  0  0  0  0  0  0  0
    0.8238   -4.9777    2.3276 H   0  0  0  0  0  0  0  0  0  0  0  0
    2.3212   -2.5390    1.1079 H   0  0  0  0  0  0  0  0  0  0  0  0
    2.9938   -4.2211    1.2841 H   0  0  0  0  0  0  0  0  0  0  0  0
  1  2  1  0  0  0  0
  2  3  1  0  0  0  0
  2 34  1  0  0  0  0
  2 35  1  0  0  0  0
  3  4  1  0  0  0  0
  3 36  1  0  0  0  0
  3 37  1  0  0  0  0
  4  5  1  0  0  0  0
  4 38  1  0  0  0  0
  5  6  2  0  0  0  0
  5  7  1  0  0  0  0
  7  8  1  0  0  0  0
  7 39  1  0  0  0  0
  7 40  1  0  0  0  0
  8  9  1  0  0  0  0
  8 33  1  0  0  0  0
  9 10  1  0  0  0  0
  9 41  1  0  0  0  0
  9 42  1  0  0  0  0
 10 11  1  0  0  0  0
 10 16  2  0  0  0  0
 11 12  2  0  0  0  0
 11 43  1  0  0  0  0
 12 13  1  0  0  0  0
 12 44  1  0  0  0  0
 13 14  1  0  0  0  0
 13 15  2  0  0  0  0
 15 16  1  0  0  0  0
 15 45  1  0  0  0  0
 16 17  1  0  0  0  0
 17 18  1  0  0  0  0
 17 31  1  0  0  0  0
 17 33  1  0  0  0  0
 18 19  1  0  0  0  0
 18 46  1  0  0  0  0
 18 47  1  0  0  0  0
 19 20  1  0  0  0  0
 19 48  1  0  0  0  0
 19 49  1  0  0  0  0
 20 21  1  0  0  0  0
 20 31  1  0  0  0  0
 21 22  1  0  0  0  0
 21 30  2  0  0  0  0
 22 23  2  0  0  0  0
 22 50  1  0  0  0  0
 23 24  1  0  0  0  0
 24 25  2  0  0  0  0
 24 51  1  0  0  0  0
 25 26  1  0  0  0  0
 25 30  1  0  0  0  0
 26 27  2  0  0  0  0
 26 52  1  0  0  0  0
 27 28  1  0  0  0  0
 27 53  1  0  0  0  0
 28 29  2  0  0  0  0
 28 54  1  0  0  0  0
 29 30  1  0  0  0  0
 29 55  1  0  0  0  0
 31 32  2  0  0  0  0
 33 56  1  0  0  0  0
 33 57  1  0  0  0  0
 34 35  1  0  0  0  0
 34 58  1  0  0  0  0
 34 59  1  0  0  0  0
 35 60  1  0  0  0  0
 35 61  1  0  0  0  0
M  END
$$$$
