
 OpenBabel07202414153D

 46 49  0  0  1  0  0  0  0  0999 V2000
    1.2082    0.1746   -0.0805 C   0  0  0  0  0  0  0  0  0  0  0  0
    2.9924    0.0701    0.0215 S   0  0  0  0  0  0  0  0  0  0  0  0
    3.3374   -1.1289    0.7438 O   0  0  0  0  0  0  0  0  0  0  0  0
    3.5232    0.3235   -1.2991 O   0  0  0  0  0  0  0  0  0  0  0  0
    3.4408    1.3906    1.0009 N   0  0  0  0  0  0  0  0  0  0  0  0
    3.2216    1.2605    2.4708 C   0  0  0  0  0  0  0  0  0  0  0  0
    3.9573    2.3669    3.2543 C   0  0  1  0  0  0  0  0  0  0  0  0
    5.4793    2.1526    3.4166 C   0  0  0  0  0  0  0  0  0  0  0  0
    6.0627    2.5833    4.4074 O   0  0  0  0  0  0  0  0  0  0  0  0
    6.0776    1.4880    2.3667 N   0  0  0  0  0  0  0  0  0  0  0  0
    7.4542    1.2005    2.1612 C   0  0  0  0  0  0  0  0  0  0  0  0
    8.4765    1.6821    2.9761 C   0  0  0  0  0  0  0  0  0  0  0  0
    9.7968    1.5900    2.6761 N   0  0  0  0  0  0  0  0  0  0  0  0
   10.1167    0.9417    1.5356 C   0  0  0  0  0  0  0  0  0  0  0  0
    9.1986    0.2959    0.7102 C   0  0  0  0  0  0  0  0  0  0  0  0
    9.6064   -0.4780   -0.3963 C   0  0  0  0  0  0  0  0  0  0  0  0
    8.6717   -1.1523   -1.1800 C   0  0  0  0  0  0  0  0  0  0  0  0
    7.3230   -1.0451   -0.8810 C   0  0  0  0  0  0  0  0  0  0  0  0
    6.9128   -0.2721    0.2037 C   0  0  0  0  0  0  0  0  0  0  0  0
    7.8266    0.4244    1.0300 C   0  0  0  0  0  0  0  0  0  0  0  0
    3.6245    3.7386    2.7016 C   0  0  0  0  0  0  0  0  0  0  0  0
    3.6639    4.8671    3.5370 C   0  0  0  0  0  0  0  0  0  0  0  0
    3.3351    6.1273    3.0372 C   0  0  0  0  0  0  0  0  0  0  0  0
    3.3244    7.4909    4.0855 Cl  0  0  0  0  0  0  0  0  0  0  0  0
    2.9929    6.2877    1.6987 C   0  0  0  0  0  0  0  0  0  0  0  0
    2.9571    5.1753    0.8599 C   0  0  0  0  0  0  0  0  0  0  0  0
    3.2579    3.8935    1.3544 C   0  0  0  0  0  0  0  0  0  0  0  0
    3.0860    2.7139    0.4290 C   0  0  0  0  0  0  0  0  0  0  0  0
    0.8586   -0.7135   -0.6131 H   0  0  0  0  0  0  0  0  0  0  0  0
    0.9251    1.0579   -0.6544 H   0  0  0  0  0  0  0  0  0  0  0  0
    0.7833    0.1944    0.9239 H   0  0  0  0  0  0  0  0  0  0  0  0
    3.5891    0.2857    2.8147 H   0  0  0  0  0  0  0  0  0  0  0  0
    2.1450    1.3077    2.6729 H   0  0  0  0  0  0  0  0  0  0  0  0
    3.5556    2.3072    4.2768 H   0  0  0  0  0  0  0  0  0  0  0  0
    5.4672    1.2581    1.5923 H   0  0  0  0  0  0  0  0  0  0  0  0
    8.2836    2.1935    3.9129 H   0  0  0  0  0  0  0  0  0  0  0  0
   11.1779    0.9436    1.3006 H   0  0  0  0  0  0  0  0  0  0  0  0
   10.6623   -0.5845   -0.6344 H   0  0  0  0  0  0  0  0  0  0  0  0
    8.9942   -1.7746   -2.0101 H   0  0  0  0  0  0  0  0  0  0  0  0
    6.5784   -1.5719   -1.4733 H   0  0  0  0  0  0  0  0  0  0  0  0
    5.8520   -0.2692    0.4188 H   0  0  0  0  0  0  0  0  0  0  0  0
    3.9379    4.7612    4.5858 H   0  0  0  0  0  0  0  0  0  0  0  0
    2.7418    7.2698    1.3060 H   0  0  0  0  0  0  0  0  0  0  0  0
    2.6715    5.3112   -0.1824 H   0  0  0  0  0  0  0  0  0  0  0  0
    3.6930    2.8828   -0.4680 H   0  0  0  0  0  0  0  0  0  0  0  0
    2.0286    2.7115    0.1456 H   0  0  0  0  0  0  0  0  0  0  0  0
  1  2  1  0  0  0  0
  1 29  1  0  0  0  0
  1 30  1  0  0  0  0
  1 31  1  0  0  0  0
  2  3  2  0  0  0  0
  2  4  2  0  0  0  0
  2  5  1  0  0  0  0
  5  6  1  0  0  0  0
  5 28  1  0  0  0  0
  6  7  1  0  0  0  0
  6 32  1  0  0  0  0
  6 33  1  0  0  0  0
  7  8  1  0  0  0  0
  7 21  1  0  0  0  0
  7 34  1  1  0  0  0
  8  9  2  0  0  0  0
  8 10  1  0  0  0  0
 10 11  1  0  0  0  0
 10 35  1  0  0  0  0
 11 12  1  0  0  0  0
 11 20  2  0  0  0  0
 12 13  2  0  0  0  0
 12 36  1  0  0  0  0
 13 14  1  0  0  0  0
 14 15  2  0  0  0  0
 14 37  1  0  0  0  0
 15 16  1  0  0  0  0
 15 20  1  0  0  0  0
 16 17  2  0  0  0  0
 16 38  1  0  0  0  0
 17 18  1  0  0  0  0
 17 39  1  0  0  0  0
 18 19  2  0  0  0  0
 18 40  1  0  0  0  0
 19 20  1  0  0  0  0
 19 41  1  0  0  0  0
 21 22  1  0  0  0  0
 21 27  2  0  0  0  0
 22 23  2  0  0  0  0
 22 42  1  0  0  0  0
 23 24  1  0  0  0  0
 23 25  1  0  0  0  0
 25 26  2  0  0  0  0
 25 43  1  0  0  0  0
 26 27  1  0  0  0  0
 26 44  1  0  0  0  0
 27 28  1  0  0  0  0
 28 45  1  0  0  0  0
 28 46  1  0  0  0  0
M  END
$$$$
