
 OpenBabel07202414193D

 45 46  0  0  0  0  0  0  0  0999 V2000
    6.7830    5.2801    7.4197 N   0  0  0  0  0  0  0  0  0  0  0  0
    5.1977    5.0631    6.9216 S   0  0  0  0  0  0  0  0  0  0  0  0
    4.8475    3.7040    7.2614 O   0  0  0  0  0  0  0  0  0  0  0  0
    4.4921    6.1889    7.4808 O   0  0  0  0  0  0  0  0  0  0  0  0
    5.2561    5.2590    5.1428 C   0  0  0  0  0  0  0  0  0  0  0  0
    5.9802    4.1470    4.3824 C   0  0  0  0  0  0  0  0  0  0  0  0
    6.0710    4.3072    2.8614 C   0  0  0  0  0  0  0  0  0  0  0  0
    5.3556    5.3249    2.1922 C   0  0  0  0  0  0  0  0  0  0  0  0
    5.4006    5.4765    0.8000 C   0  0  0  0  0  0  0  0  0  0  0  0
    6.1849    4.6327    0.0288 C   0  0  0  0  0  0  0  0  0  0  0  0
    6.8976    3.6196    0.6612 C   0  0  0  0  0  0  0  0  0  0  0  0
    6.8316    3.4144    2.0600 C   0  0  0  0  0  0  0  0  0  0  0  0
    7.5100    2.1593    2.5953 C   0  0  0  0  0  0  0  0  0  0  0  0
    6.9823    0.9357    1.9625 N   0  0  0  0  0  0  0  0  0  0  0  0
    5.5235    0.7612    2.0829 C   0  0  0  0  0  0  0  0  0  0  0  0
    5.0268    0.1440    3.3944 C   0  0  0  0  0  0  0  0  0  0  0  0
    5.7496   -1.0708    3.7735 N   0  0  0  0  0  0  0  0  0  0  0  0
    5.0178   -2.0413    4.4491 C   0  0  0  0  0  0  0  0  0  0  0  0
    3.7874   -1.9413    4.5516 O   0  0  0  0  0  0  0  0  0  0  0  0
    5.6847   -3.1957    5.1716 C   0  0  0  0  0  0  0  0  0  0  0  0
    6.6419   -4.2341    4.1100 Cl  0  0  0  0  0  0  0  0  0  0  0  0
    7.2110   -0.9351    3.7075 C   0  0  0  0  0  0  0  0  0  0  0  0
    7.6837   -0.2924    2.3775 C   0  0  0  0  0  0  0  0  0  0  0  0
    6.8973    4.8204    8.3295 H   0  0  0  0  0  0  0  0  0  0  0  0
    6.9950    6.2764    7.5109 H   0  0  0  0  0  0  0  0  0  0  0  0
    5.6984    6.2430    4.9551 H   0  0  0  0  0  0  0  0  0  0  0  0
    4.2025    5.2977    4.8438 H   0  0  0  0  0  0  0  0  0  0  0  0
    5.4712    3.1978    4.5856 H   0  0  0  0  0  0  0  0  0  0  0  0
    7.0003    4.0683    4.7764 H   0  0  0  0  0  0  0  0  0  0  0  0
    4.7205    6.0217    2.7336 H   0  0  0  0  0  0  0  0  0  0  0  0
    4.8118    6.2518    0.3154 H   0  0  0  0  0  0  0  0  0  0  0  0
    6.2146    4.7374   -1.0526 H   0  0  0  0  0  0  0  0  0  0  0  0
    7.4765    2.9296    0.0381 H   0  0  0  0  0  0  0  0  0  0  0  0
    7.4674    2.1005    3.6815 H   0  0  0  0  0  0  0  0  0  0  0  0
    8.5732    2.2534    2.3282 H   0  0  0  0  0  0  0  0  0  0  0  0
    5.2103    0.1103    1.2573 H   0  0  0  0  0  0  0  0  0  0  0  0
    4.9792    1.6970    1.9164 H   0  0  0  0  0  0  0  0  0  0  0  0
    3.9552   -0.0541    3.2901 H   0  0  0  0  0  0  0  0  0  0  0  0
    5.1453    0.8497    4.2243 H   0  0  0  0  0  0  0  0  0  0  0  0
    4.8889   -3.8348    5.5729 H   0  0  0  0  0  0  0  0  0  0  0  0
    6.2778   -2.8306    6.0142 H   0  0  0  0  0  0  0  0  0  0  0  0
    7.7079   -1.8962    3.8275 H   0  0  0  0  0  0  0  0  0  0  0  0
    7.5156   -0.3115    4.5551 H   0  0  0  0  0  0  0  0  0  0  0  0
    7.5326   -1.0282    1.5760 H   0  0  0  0  0  0  0  0  0  0  0  0
    8.7670   -0.1213    2.4123 H   0  0  0  0  0  0  0  0  0  0  0  0
  1  2  1  0  0  0  0
  1 24  1  0  0  0  0
  1 25  1  0  0  0  0
  2  3  2  0  0  0  0
  2  4  2  0  0  0  0
  2  5  1  0  0  0  0
  5  6  1  0  0  0  0
  5 26  1  0  0  0  0
  5 27  1  0  0  0  0
  6  7  1  0  0  0  0
  6 28  1  0  0  0  0
  6 29  1  0  0  0  0
  7  8  1  0  0  0  0
  7 12  2  0  0  0  0
  8  9  2  0  0  0  0
  8 30  1  0  0  0  0
  9 10  1  0  0  0  0
  9 31  1  0  0  0  0
 10 11  2  0  0  0  0
 10 32  1  0  0  0  0
 11 12  1  0  0  0  0
 11 33  1  0  0  0  0
 12 13  1  0  0  0  0
 13 14  1  0  0  0  0
 13 34  1  0  0  0  0
 13 35  1  0  0  0  0
 14 15  1  0  0  0  0
 14 23  1  0  0  0  0
 15 16  1  0  0  0  0
 15 36  1  0  0  0  0
 15 37  1  0  0  0  0
 16 17  1  0  0  0  0
 16 38  1  0  0  0  0
 16 39  1  0  0  0  0
 17 18  1  0  0  0  0
 17 22  1  0  0  0  0
 18 19  2  0  0  0  0
 18 20  1  0  0  0  0
 20 21  1  0  0  0  0
 20 40  1  0  0  0  0
 20 41  1  0  0  0  0
 22 23  1  0  0  0  0
 22 42  1  0  0  0  0
 22 43  1  0  0  0  0
 23 44  1  0  0  0  0
 23 45  1  0  0  0  0
M  END
$$$$
