
 OpenBabel07202414173D

 51 54  0  0  1  0  0  0  0  0999 V2000
    0.9977   -0.0532   -0.1413 Cl  0  0  0  0  0  0  0  0  0  0  0  0
    2.7114   -0.1056    0.0056 C   0  0  0  0  0  0  0  0  0  0  0  0
    3.4470    1.0657   -0.1484 C   0  0  0  0  0  0  0  0  0  0  0  0
    4.8378    1.0196   -0.0760 C   0  0  0  0  0  0  0  0  0  0  0  0
    5.5027   -0.1969    0.1550 C   0  0  0  0  0  0  0  0  0  0  0  0
    4.7555   -1.3782    0.3280 C   0  0  0  0  0  0  0  0  0  0  0  0
    3.3538   -1.3206    0.2512 C   0  0  0  0  0  0  0  0  0  0  0  0
    5.4657   -2.7059    0.5351 C   0  0  3  0  0  0  0  0  0  0  0  0
    5.3326   -3.2541    1.9691 C   0  0  0  0  0  0  0  0  0  0  0  0
    4.3951   -3.9971    2.2575 O   0  0  0  0  0  0  0  0  0  0  0  0
    6.2878   -2.8004    2.8606 N   0  0  0  0  0  0  0  0  0  0  0  0
    6.3286   -3.0448    4.2619 C   0  0  0  0  0  0  0  0  0  0  0  0
    5.5648   -4.0354    4.8805 C   0  0  0  0  0  0  0  0  0  0  0  0
    5.3946   -4.1512    6.2199 N   0  0  0  0  0  0  0  0  0  0  0  0
    6.0690   -3.2723    6.9881 C   0  0  0  0  0  0  0  0  0  0  0  0
    7.0062   -2.3623    6.5038 C   0  0  0  0  0  0  0  0  0  0  0  0
    7.8022   -1.5981    7.3790 C   0  0  0  0  0  0  0  0  0  0  0  0
    8.7441   -0.7003    6.8827 C   0  0  0  0  0  0  0  0  0  0  0  0
    8.8731   -0.5330    5.5118 C   0  0  0  0  0  0  0  0  0  0  0  0
    8.0822   -1.2830    4.6375 C   0  0  0  0  0  0  0  0  0  0  0  0
    7.1409   -2.2321    5.1013 C   0  0  0  0  0  0  0  0  0  0  0  0
    6.9253   -2.6332    0.0396 C   0  0  0  0  0  0  0  0  0  0  0  0
    7.6357   -1.4547    0.5891 N   0  0  0  0  0  0  0  0  0  0  0  0
    9.0696   -1.4986    0.2034 C   0  0  0  0  0  0  0  0  0  0  0  0
    9.8546   -0.3267    0.8182 C   0  0  0  0  0  0  0  0  0  0  0  0
    9.9023   -0.1054    2.0256 O   0  0  0  0  0  0  0  0  0  0  0  0
   10.4859    0.4963   -0.0870 N   0  0  0  0  0  0  0  0  0  0  0  0
   11.2468    1.6416    0.3936 C   0  0  0  0  0  0  0  0  0  0  0  0
   11.8681    2.3818   -0.7223 C   0  0  0  0  0  0  0  0  0  0  0  0
   12.3471    2.9434   -1.6252 N   0  0  0  0  0  0  0  0  0  0  0  0
    7.0136   -0.2129    0.0874 C   0  0  0  0  0  0  0  0  0  0  0  0
    2.9476    2.0117   -0.3410 H   0  0  0  0  0  0  0  0  0  0  0  0
    5.4051    1.9368   -0.2244 H   0  0  0  0  0  0  0  0  0  0  0  0
    2.7622   -2.2281    0.3596 H   0  0  0  0  0  0  0  0  0  0  0  0
    4.9696   -3.4500   -0.1055 H   0  0  0  0  0  0  0  0  0  0  0  0
    6.8840   -2.0594    2.5015 H   0  0  0  0  0  0  0  0  0  0  0  0
    5.0499   -4.8052    4.3141 H   0  0  0  0  0  0  0  0  0  0  0  0
    5.8275   -3.3244    8.0470 H   0  0  0  0  0  0  0  0  0  0  0  0
    7.7136   -1.7231    8.4565 H   0  0  0  0  0  0  0  0  0  0  0  0
    9.3788   -0.1384    7.5624 H   0  0  0  0  0  0  0  0  0  0  0  0
    9.5961    0.1710    5.1059 H   0  0  0  0  0  0  0  0  0  0  0  0
    8.2458   -1.1242    3.5771 H   0  0  0  0  0  0  0  0  0  0  0  0
    6.9286   -2.5888   -1.0591 H   0  0  0  0  0  0  0  0  0  0  0  0
    7.4459   -3.5556    0.3247 H   0  0  0  0  0  0  0  0  0  0  0  0
    9.1845   -1.5006   -0.8876 H   0  0  0  0  0  0  0  0  0  0  0  0
    9.5343   -2.4144    0.5866 H   0  0  0  0  0  0  0  0  0  0  0  0
   10.4410    0.3072   -1.0830 H   0  0  0  0  0  0  0  0  0  0  0  0
   12.0077    1.2847    1.0858 H   0  0  0  0  0  0  0  0  0  0  0  0
   10.5602    2.2966    0.9379 H   0  0  0  0  0  0  0  0  0  0  0  0
    7.2908   -0.0437   -0.9622 H   0  0  0  0  0  0  0  0  0  0  0  0
    7.3836    0.6321    0.6802 H   0  0  0  0  0  0  0  0  0  0  0  0
  1  2  1  0  0  0  0
  2  3  1  0  0  0  0
  2  7  2  0  0  0  0
  3  4  2  0  0  0  0
  3 32  1  0  0  0  0
  4  5  1  0  0  0  0
  4 33  1  0  0  0  0
  5  6  2  0  0  0  0
  5 31  1  0  0  0  0
  6  7  1  0  0  0  0
  6  8  1  0  0  0  0
  7 34  1  0  0  0  0
  8  9  1  0  0  0  0
  8 22  1  0  0  0  0
  8 35  1  0  0  0  0
  9 10  2  0  0  0  0
  9 11  1  0  0  0  0
 11 12  1  0  0  0  0
 11 36  1  0  0  0  0
 12 13  1  0  0  0  0
 12 21  2  0  0  0  0
 13 14  2  0  0  0  0
 13 37  1  0  0  0  0
 14 15  1  0  0  0  0
 15 16  2  0  0  0  0
 15 38  1  0  0  0  0
 16 17  1  0  0  0  0
 16 21  1  0  0  0  0
 17 18  2  0  0  0  0
 17 39  1  0  0  0  0
 18 19  1  0  0  0  0
 18 40  1  0  0  0  0
 19 20  2  0  0  0  0
 19 41  1  0  0  0  0
 20 21  1  0  0  0  0
 20 42  1  0  0  0  0
 22 23  1  0  0  0  0
 22 43  1  0  0  0  0
 22 44  1  0  0  0  0
 23 24  1  0  0  0  0
 23 31  1  0  0  0  0
 24 25  1  0  0  0  0
 24 45  1  0  0  0  0
 24 46  1  0  0  0  0
 25 26  2  0  0  0  0
 25 27  1  0  0  0  0
 27 28  1  0  0  0  0
 27 47  1  0  0  0  0
 28 29  1  0  0  0  0
 28 48  1  0  0  0  0
 28 49  1  0  0  0  0
 29 30  3  0  0  0  0
 31 50  1  0  0  0  0
 31 51  1  0  0  0  0
M  END
$$$$
