
 OpenBabel07202414153D

 36 38  0  0  0  0  0  0  0  0999 V2000
    9.7275   -0.8774    2.7648 C   0  0  0  0  0  0  0  0  0  0  0  0
    8.3352   -0.7113    2.5294 O   0  0  0  0  0  0  0  0  0  0  0  0
    7.6561   -1.7803    1.9893 C   0  0  0  0  0  0  0  0  0  0  0  0
    8.2706   -3.0208    1.6162 C   0  0  0  0  0  0  0  0  0  0  0  0
    7.5723   -4.1195    1.0636 C   0  0  0  0  0  0  0  0  0  0  0  0
    6.2146   -3.8446    0.9299 C   0  0  0  0  0  0  0  0  0  0  0  0
    5.5511   -2.6103    1.2885 C   0  0  0  0  0  0  0  0  0  0  0  0
    6.2729   -1.5357    1.8335 C   0  0  0  0  0  0  0  0  0  0  0  0
    4.2404   -2.7098    1.0128 N   0  0  0  0  0  0  0  0  0  0  0  0
    4.0933   -3.9516    0.5114 N   0  0  0  0  0  0  0  0  0  0  0  0
    5.2528   -4.6856    0.4310 C   0  0  0  0  0  0  0  0  0  0  0  0
    5.3107   -5.9805   -0.0613 N   0  0  0  0  0  0  0  0  0  0  0  0
    4.1754   -6.6271   -0.5290 C   0  0  0  0  0  0  0  0  0  0  0  0
    3.0485   -6.1295   -0.5356 O   0  0  0  0  0  0  0  0  0  0  0  0
    4.4256   -8.0380   -1.0367 C   0  0  0  0  0  0  0  0  0  0  0  0
    4.3321   -9.0771    0.0537 C   0  0  0  0  0  0  0  0  0  0  0  0
    3.1540   -9.2258    0.8023 C   0  0  0  0  0  0  0  0  0  0  0  0
    3.0801  -10.1625    1.8356 C   0  0  0  0  0  0  0  0  0  0  0  0
    4.1771  -10.9731    2.1228 C   0  0  0  0  0  0  0  0  0  0  0  0
    5.3376  -10.8553    1.3621 C   0  0  0  0  0  0  0  0  0  0  0  0
    5.4190   -9.9187    0.3300 C   0  0  0  0  0  0  0  0  0  0  0  0
    6.6885  -11.8662    1.7009 Cl  0  0  0  0  0  0  0  0  0  0  0  0
   10.1073    0.0460    3.2123 H   0  0  0  0  0  0  0  0  0  0  0  0
   10.2677   -1.0377    1.8260 H   0  0  0  0  0  0  0  0  0  0  0  0
    9.9131   -1.6907    3.4743 H   0  0  0  0  0  0  0  0  0  0  0  0
    9.3412   -3.1546    1.7528 H   0  0  0  0  0  0  0  0  0  0  0  0
    8.0635   -5.0416    0.7907 H   0  0  0  0  0  0  0  0  0  0  0  0
    5.8038   -0.6028    2.1115 H   0  0  0  0  0  0  0  0  0  0  0  0
    3.1691   -4.2669    0.2268 H   0  0  0  0  0  0  0  0  0  0  0  0
    6.2019   -6.4580   -0.0525 H   0  0  0  0  0  0  0  0  0  0  0  0
    5.4068   -8.0706   -1.5257 H   0  0  0  0  0  0  0  0  0  0  0  0
    3.6892   -8.2604   -1.8188 H   0  0  0  0  0  0  0  0  0  0  0  0
    2.2835   -8.6041    0.5919 H   0  0  0  0  0  0  0  0  0  0  0  0
    2.1672  -10.2558    2.4194 H   0  0  0  0  0  0  0  0  0  0  0  0
    4.1193  -11.6928    2.9350 H   0  0  0  0  0  0  0  0  0  0  0  0
    6.3325   -9.8496   -0.2553 H   0  0  0  0  0  0  0  0  0  0  0  0
  1  2  1  0  0  0  0
  1 23  1  0  0  0  0
  1 24  1  0  0  0  0
  1 25  1  0  0  0  0
  2  3  1  0  0  0  0
  3  4  1  0  0  0  0
  3  8  2  0  0  0  0
  4  5  2  0  0  0  0
  4 26  1  0  0  0  0
  5  6  1  0  0  0  0
  5 27  1  0  0  0  0
  6  7  1  0  0  0  0
  6 11  2  0  0  0  0
  7  8  1  0  0  0  0
  7  9  2  0  0  0  0
  8 28  1  0  0  0  0
  9 10  1  0  0  0  0
 10 11  1  0  0  0  0
 10 29  1  0  0  0  0
 11 12  1  0  0  0  0
 12 13  1  0  0  0  0
 12 30  1  0  0  0  0
 13 14  2  0  0  0  0
 13 15  1  0  0  0  0
 15 16  1  0  0  0  0
 15 31  1  0  0  0  0
 15 32  1  0  0  0  0
 16 17  1  0  0  0  0
 16 21  2  0  0  0  0
 17 18  2  0  0  0  0
 17 33  1  0  0  0  0
 18 19  1  0  0  0  0
 18 34  1  0  0  0  0
 19 20  2  0  0  0  0
 19 35  1  0  0  0  0
 20 21  1  0  0  0  0
 20 22  1  0  0  0  0
 21 36  1  0  0  0  0
M  END
$$$$
