
 OpenBabel07202414123D

 56 59  0  0  1  0  0  0  0  0999 V2000
    2.6810    0.2873    1.7397 C   0  0  0  0  0  0  0  0  0  0  0  0
    2.2693   -0.9912    1.0077 C   0  0  0  0  0  0  0  0  0  0  0  0
    0.7452   -1.0354    0.8765 C   0  0  0  0  0  0  0  0  0  0  0  0
    2.9116   -1.1020   -0.3871 C   0  0  0  0  0  0  0  0  0  0  0  0
    4.3680   -1.2331   -0.3501 N   0  0  0  0  0  0  0  0  0  0  0  0
    4.9103   -2.4990   -0.2441 C   0  0  0  0  0  0  0  0  0  0  0  0
    6.2287   -2.7836   -0.3007 C   0  0  0  0  0  0  0  0  0  0  0  0
    7.1573   -1.6166   -0.3989 C   0  0  0  0  0  0  0  0  0  0  0  0
    8.5582   -1.7271   -0.4528 C   0  0  0  0  0  0  0  0  0  0  0  0
    9.3789   -0.5883   -0.5425 C   0  0  0  0  0  0  0  0  0  0  0  0
    8.8237    0.6885   -0.5685 C   0  0  0  0  0  0  0  0  0  0  0  0
    7.4432    0.8274   -0.5313 C   0  0  0  0  0  0  0  0  0  0  0  0
    6.6238   -0.3130   -0.4624 C   0  0  0  0  0  0  0  0  0  0  0  0
    5.1538   -0.0995   -0.4912 C   0  0  0  0  0  0  0  0  0  0  0  0
    4.7037    1.0305   -0.6295 O   0  0  0  0  0  0  0  0  0  0  0  0
    6.6982   -4.0991   -0.2789 N   0  0  0  0  0  0  0  0  0  0  0  0
    5.9505   -5.2244   -0.5598 C   0  0  0  0  0  0  0  0  0  0  0  0
    4.7626   -5.2375   -0.8782 O   0  0  0  0  0  0  0  0  0  0  0  0
    6.6559   -6.4000   -0.5201 N   0  0  0  0  0  0  0  0  0  0  0  0
    6.0194   -7.6737   -0.8936 C   0  0  3  0  0  0  0  0  0  0  0  0
    5.3085   -8.3037    0.3115 C   0  0  0  0  0  0  0  0  0  0  0  0
    4.9038   -9.7651    0.1354 C   0  0  0  0  0  0  0  0  0  0  0  0
    5.9230  -10.6632   -0.5582 C   0  0  0  0  0  0  0  0  0  0  0  0
    6.8925   -9.9883   -1.4881 C   0  0  0  0  0  0  0  0  0  0  0  0
    6.9981   -8.5926   -1.5974 C   0  0  0  0  0  0  0  0  0  0  0  0
    7.9352   -8.0539   -2.4992 C   0  0  0  0  0  0  0  0  0  0  0  0
    8.7603   -8.8763   -3.2655 C   0  0  0  0  0  0  0  0  0  0  0  0
    8.6501  -10.2558   -3.1559 C   0  0  0  0  0  0  0  0  0  0  0  0
    7.7277  -10.8078   -2.2715 C   0  0  0  0  0  0  0  0  0  0  0  0
    2.2037    0.3406    2.7231 H   0  0  0  0  0  0  0  0  0  0  0  0
    2.3913    1.1780    1.1760 H   0  0  0  0  0  0  0  0  0  0  0  0
    3.7626    0.3229    1.9057 H   0  0  0  0  0  0  0  0  0  0  0  0
    2.5851   -1.8484    1.6150 H   0  0  0  0  0  0  0  0  0  0  0  0
    0.3714   -0.1785    0.3056 H   0  0  0  0  0  0  0  0  0  0  0  0
    0.2692   -1.0188    1.8629 H   0  0  0  0  0  0  0  0  0  0  0  0
    0.4227   -1.9490    0.3653 H   0  0  0  0  0  0  0  0  0  0  0  0
    2.6436   -0.2268   -0.9949 H   0  0  0  0  0  0  0  0  0  0  0  0
    2.5039   -1.9725   -0.9178 H   0  0  0  0  0  0  0  0  0  0  0  0
    4.1695   -3.2806   -0.1188 H   0  0  0  0  0  0  0  0  0  0  0  0
    9.0555   -2.6915   -0.4436 H   0  0  0  0  0  0  0  0  0  0  0  0
   10.4599   -0.6971   -0.5949 H   0  0  0  0  0  0  0  0  0  0  0  0
    9.4575    1.5703   -0.6297 H   0  0  0  0  0  0  0  0  0  0  0  0
    7.0013    1.8209   -0.5651 H   0  0  0  0  0  0  0  0  0  0  0  0
    7.6909   -4.2384   -0.2072 H   0  0  0  0  0  0  0  0  0  0  0  0
    7.5796   -6.4342   -0.1049 H   0  0  0  0  0  0  0  0  0  0  0  0
    5.2486   -7.4503   -1.6473 H   0  0  0  0  0  0  0  0  0  0  0  0
    4.3969   -7.7270    0.5248 H   0  0  0  0  0  0  0  0  0  0  0  0
    5.9299   -8.2119    1.2122 H   0  0  0  0  0  0  0  0  0  0  0  0
    4.6814  -10.1938    1.1221 H   0  0  0  0  0  0  0  0  0  0  0  0
    3.9580   -9.8123   -0.4179 H   0  0  0  0  0  0  0  0  0  0  0  0
    5.3670  -11.4229   -1.1255 H   0  0  0  0  0  0  0  0  0  0  0  0
    6.5024  -11.2036    0.2001 H   0  0  0  0  0  0  0  0  0  0  0  0
    8.0053   -6.9774   -2.6389 H   0  0  0  0  0  0  0  0  0  0  0  0
    9.4684   -8.4377   -3.9634 H   0  0  0  0  0  0  0  0  0  0  0  0
    9.2733  -10.9026   -3.7681 H   0  0  0  0  0  0  0  0  0  0  0  0
    7.6447  -11.8909   -2.2050 H   0  0  0  0  0  0  0  0  0  0  0  0
  1  2  1  0  0  0  0
  1 30  1  0  0  0  0
  1 31  1  0  0  0  0
  1 32  1  0  0  0  0
  2  3  1  0  0  0  0
  2  4  1  0  0  0  0
  2 33  1  0  0  0  0
  3 34  1  0  0  0  0
  3 35  1  0  0  0  0
  3 36  1  0  0  0  0
  4  5  1  0  0  0  0
  4 37  1  0  0  0  0
  4 38  1  0  0  0  0
  5  6  1  0  0  0  0
  5 14  1  0  0  0  0
  6  7  2  0  0  0  0
  6 39  1  0  0  0  0
  7  8  1  0  0  0  0
  7 16  1  0  0  0  0
  8  9  1  0  0  0  0
  8 13  2  0  0  0  0
  9 10  2  0  0  0  0
  9 40  1  0  0  0  0
 10 11  1  0  0  0  0
 10 41  1  0  0  0  0
 11 12  2  0  0  0  0
 11 42  1  0  0  0  0
 12 13  1  0  0  0  0
 12 43  1  0  0  0  0
 13 14  1  0  0  0  0
 14 15  2  0  0  0  0
 16 17  1  0  0  0  0
 16 44  1  0  0  0  0
 17 18  2  0  0  0  0
 17 19  1  0  0  0  0
 19 20  1  0  0  0  0
 19 45  1  0  0  0  0
 20 21  1  0  0  0  0
 20 25  1  0  0  0  0
 20 46  1  0  0  0  0
 21 22  1  0  0  0  0
 21 47  1  0  0  0  0
 21 48  1  0  0  0  0
 22 23  1  0  0  0  0
 22 49  1  0  0  0  0
 22 50  1  0  0  0  0
 23 24  1  0  0  0  0
 23 51  1  0  0  0  0
 23 52  1  0  0  0  0
 24 25  1  0  0  0  0
 24 29  2  0  0  0  0
 25 26  2  0  0  0  0
 26 27  1  0  0  0  0
 26 53  1  0  0  0  0
 27 28  2  0  0  0  0
 27 54  1  0  0  0  0
 28 29  1  0  0  0  0
 28 55  1  0  0  0  0
 29 56  1  0  0  0  0
M  END
$$$$
