
 OpenBabel07202414123D

 64 66  0  0  1  0  0  0  0  0999 V2000
    0.7354    2.2595    0.0945 C   0  0  0  0  0  0  0  0  0  0  0  0
    0.2047    1.7349    1.4453 C   0  0  0  0  0  0  0  0  0  0  0  0
   -0.5665    2.9029    2.1079 C   0  0  0  0  0  0  0  0  0  0  0  0
   -0.7881    0.5900    1.1506 C   0  0  0  0  0  0  0  0  0  0  0  0
    1.3107    1.2344    2.3893 C   0  0  0  0  0  0  0  0  0  0  0  0
    2.6665    1.1463    2.0391 C   0  0  0  0  0  0  0  0  0  0  0  0
    3.6359    0.7196    2.9665 C   0  0  0  0  0  0  0  0  0  0  0  0
    3.2819    0.3819    4.2808 C   0  0  0  0  0  0  0  0  0  0  0  0
    4.2726    0.0168    5.2426 N   0  0  0  0  0  0  0  0  0  0  0  0
    4.1817   -1.2536    6.0345 C   0  0  3  0  0  0  0  0  0  0  0  0
    3.1954   -1.2774    7.2575 C   0  0  0  0  0  0  0  0  0  0  0  0
    1.9754   -1.1331    7.1505 O   0  0  0  0  0  0  0  0  0  0  0  0
    3.7423   -1.5981    8.4907 N   0  0  0  0  0  0  0  0  0  0  0  0
    2.8610   -1.9960    9.5860 C   0  0  0  0  0  0  0  0  0  0  0  0
    3.5504   -1.9480   10.9480 C   0  0  0  0  0  0  0  0  0  0  0  0
    2.6154   -2.2501   12.0939 C   0  0  0  0  0  0  0  0  0  0  0  0
    1.8950   -1.2185   12.7150 C   0  0  0  0  0  0  0  0  0  0  0  0
    1.0385   -1.4869   13.7874 C   0  0  0  0  0  0  0  0  0  0  0  0
    0.8853   -2.7948   14.2466 C   0  0  0  0  0  0  0  0  0  0  0  0
    1.5837   -3.8179   13.6206 C   0  0  0  0  0  0  0  0  0  0  0  0
    1.4341   -5.0805   14.0575 F   0  0  0  0  0  0  0  0  0  0  0  0
    2.4400   -3.5648   12.5536 C   0  0  0  0  0  0  0  0  0  0  0  0
    3.9982   -2.5825    5.2828 C   0  0  0  0  0  0  0  0  0  0  0  0
    3.1669   -2.7915    4.1807 C   0  0  0  0  0  0  0  0  0  0  0  0
    2.8782   -4.0862    3.7474 C   0  0  0  0  0  0  0  0  0  0  0  0
    3.4335   -5.1521    4.4288 C   0  0  0  0  0  0  0  0  0  0  0  0
    4.2814   -5.0071    5.4643 N   0  0  0  0  0  0  0  0  0  0  0  0
    4.5414   -3.7389    5.8596 C   0  0  0  0  0  0  0  0  0  0  0  0
    5.2977    0.9049    5.6093 C   0  0  0  0  0  0  0  0  0  0  0  0
    6.1268    0.6432    6.4833 O   0  0  0  0  0  0  0  0  0  0  0  0
    5.3630    2.2404    4.9348 C   0  0  0  0  0  0  0  0  0  0  0  0
    6.5350    2.8696    4.7713 C   0  0  0  0  0  0  0  0  0  0  0  0
    1.9372    0.4640    4.6259 C   0  0  0  0  0  0  0  0  0  0  0  0
    0.9725    0.8549    3.6959 C   0  0  0  0  0  0  0  0  0  0  0  0
   -0.0848    2.6200   -0.5378 H   0  0  0  0  0  0  0  0  0  0  0  0
    1.2570    1.4772   -0.4679 H   0  0  0  0  0  0  0  0  0  0  0  0
    1.4290    3.0966    0.2364 H   0  0  0  0  0  0  0  0  0  0  0  0
   -1.3934    3.2410    1.4726 H   0  0  0  0  0  0  0  0  0  0  0  0
    0.0930    3.7607    2.2841 H   0  0  0  0  0  0  0  0  0  0  0  0
   -1.0064    2.6265    3.0721 H   0  0  0  0  0  0  0  0  0  0  0  0
   -1.6246    0.9428    0.5352 H   0  0  0  0  0  0  0  0  0  0  0  0
   -1.2198    0.1687    2.0655 H   0  0  0  0  0  0  0  0  0  0  0  0
   -0.3005   -0.2296    0.6105 H   0  0  0  0  0  0  0  0  0  0  0  0
    3.0088    1.4156    1.0419 H   0  0  0  0  0  0  0  0  0  0  0  0
    4.6734    0.6588    2.6422 H   0  0  0  0  0  0  0  0  0  0  0  0
    5.1795   -1.3669    6.4802 H   0  0  0  0  0  0  0  0  0  0  0  0
    4.7410   -1.7475    8.5785 H   0  0  0  0  0  0  0  0  0  0  0  0
    2.5104   -3.0135    9.3668 H   0  0  0  0  0  0  0  0  0  0  0  0
    1.9767   -1.3479    9.5790 H   0  0  0  0  0  0  0  0  0  0  0  0
    3.9950   -0.9548   11.0972 H   0  0  0  0  0  0  0  0  0  0  0  0
    4.3915   -2.6523   10.9646 H   0  0  0  0  0  0  0  0  0  0  0  0
    1.9988   -0.1897   12.3681 H   0  0  0  0  0  0  0  0  0  0  0  0
    0.4945   -0.6773   14.2655 H   0  0  0  0  0  0  0  0  0  0  0  0
    0.2316   -3.0175   15.0830 H   0  0  0  0  0  0  0  0  0  0  0  0
    2.9624   -4.3965   12.0918 H   0  0  0  0  0  0  0  0  0  0  0  0
    2.6797   -1.9790    3.6585 H   0  0  0  0  0  0  0  0  0  0  0  0
    2.2015   -4.2530    2.9166 H   0  0  0  0  0  0  0  0  0  0  0  0
    3.1927   -6.1764    4.1602 H   0  0  0  0  0  0  0  0  0  0  0  0
    5.2000   -3.6862    6.7240 H   0  0  0  0  0  0  0  0  0  0  0  0
    4.4466    2.7021    4.5891 H   0  0  0  0  0  0  0  0  0  0  0  0
    7.4682    2.4394    5.1235 H   0  0  0  0  0  0  0  0  0  0  0  0
    6.5835    3.8339    4.2751 H   0  0  0  0  0  0  0  0  0  0  0  0
    1.5910    0.2884    5.6320 H   0  0  0  0  0  0  0  0  0  0  0  0
   -0.0617    0.8787    4.0351 H   0  0  0  0  0  0  0  0  0  0  0  0
  1  2  1  0  0  0  0
  1 35  1  0  0  0  0
  1 36  1  0  0  0  0
  1 37  1  0  0  0  0
  2  3  1  0  0  0  0
  2  4  1  0  0  0  0
  2  5  1  0  0  0  0
  3 38  1  0  0  0  0
  3 39  1  0  0  0  0
  3 40  1  0  0  0  0
  4 41  1  0  0  0  0
  4 42  1  0  0  0  0
  4 43  1  0  0  0  0
  5  6  1  0  0  0  0
  5 34  2  0  0  0  0
  6  7  2  0  0  0  0
  6 44  1  0  0  0  0
  7  8  1  0  0  0  0
  7 45  1  0  0  0  0
  8  9  1  0  0  0  0
  8 33  2  0  0  0  0
  9 10  1  0  0  0  0
  9 29  1  0  0  0  0
 10 11  1  0  0  0  0
 10 23  1  0  0  0  0
 10 46  1  0  0  0  0
 11 12  2  0  0  0  0
 11 13  1  0  0  0  0
 13 14  1  0  0  0  0
 13 47  1  0  0  0  0
 14 15  1  0  0  0  0
 14 48  1  0  0  0  0
 14 49  1  0  0  0  0
 15 16  1  0  0  0  0
 15 50  1  0  0  0  0
 15 51  1  0  0  0  0
 16 17  1  0  0  0  0
 16 22  2  0  0  0  0
 17 18  2  0  0  0  0
 17 52  1  0  0  0  0
 18 19  1  0  0  0  0
 18 53  1  0  0  0  0
 19 20  2  0  0  0  0
 19 54  1  0  0  0  0
 20 21  1  0  0  0  0
 20 22  1  0  0  0  0
 22 55  1  0  0  0  0
 23 24  1  0  0  0  0
 23 28  2  0  0  0  0
 24 25  2  0  0  0  0
 24 56  1  0  0  0  0
 25 26  1  0  0  0  0
 25 57  1  0  0  0  0
 26 27  2  0  0  0  0
 26 58  1  0  0  0  0
 27 28  1  0  0  0  0
 28 59  1  0  0  0  0
 29 30  2  0  0  0  0
 29 31  1  0  0  0  0
 31 32  2  0  0  0  0
 31 60  1  0  0  0  0
 32 61  1  0  0  0  0
 32 62  1  0  0  0  0
 33 34  1  0  0  0  0
 33 63  1  0  0  0  0
 34 64  1  0  0  0  0
M  END
$$$$
