
 OpenBabel07202414123D

 64 67  0  0  1  0  0  0  0  0999 V2000
    3.7306    2.1288    0.4473 C   0  0  0  0  0  0  0  0  0  0  0  0
    2.8716    0.8411    0.4328 C   0  0  0  0  0  0  0  0  0  0  0  0
    1.4087    1.2854    0.6738 C   0  0  0  0  0  0  0  0  0  0  0  0
    2.9781    0.2321   -0.9788 C   0  0  0  0  0  0  0  0  0  0  0  0
    3.2740   -0.1816    1.5135 C   0  0  0  0  0  0  0  0  0  0  0  0
    4.3019    0.0551    2.4292 C   0  0  0  0  0  0  0  0  0  0  0  0
    4.5063   -0.7898    3.5344 C   0  0  0  0  0  0  0  0  0  0  0  0
    3.6980   -1.9097    3.7875 C   0  0  0  0  0  0  0  0  0  0  0  0
    3.8169   -2.6761    5.0333 N   0  0  0  0  0  0  0  0  0  0  0  0
    3.4683   -4.1392    4.9902 C   0  0  3  0  0  0  0  0  0  0  0  0
    4.6552   -5.1898    5.2063 C   0  0  0  0  0  0  0  0  0  0  0  0
    4.4346   -6.4032    5.3114 O   0  0  0  0  0  0  0  0  0  0  0  0
    5.9822   -4.8785    5.1553 N   0  0  0  0  0  0  0  0  0  0  0  0
    6.6205   -3.5978    5.2299 C   0  0  0  0  0  0  0  0  0  0  0  0
    7.9684   -3.5668    4.6068 C   0  0  0  0  0  0  0  0  0  0  0  0
    8.0644   -3.4004    3.2178 C   0  0  0  0  0  0  0  0  0  0  0  0
    9.3082   -3.2163    2.6293 C   0  0  0  0  0  0  0  0  0  0  0  0
   10.4528   -3.2144    3.4255 C   0  0  0  0  0  0  0  0  0  0  0  0
   10.3610   -3.4071    4.8057 C   0  0  0  0  0  0  0  0  0  0  0  0
    9.1178   -3.5883    5.3991 C   0  0  0  0  0  0  0  0  0  0  0  0
    2.1788   -4.4922    5.7689 C   0  0  0  0  0  0  0  0  0  0  0  0
    1.4283   -3.5470    6.4878 C   0  0  0  0  0  0  0  0  0  0  0  0
    0.4072   -3.9547    7.3441 C   0  0  0  0  0  0  0  0  0  0  0  0
    0.1022   -5.2992    7.4078 C   0  0  0  0  0  0  0  0  0  0  0  0
    0.7083   -6.2309    6.6502 N   0  0  0  0  0  0  0  0  0  0  0  0
    1.7207   -5.8093    5.8523 C   0  0  0  0  0  0  0  0  0  0  0  0
    4.2204   -1.9931    6.2376 C   0  0  0  0  0  0  0  0  0  0  0  0
    4.3964   -0.7755    6.2596 O   0  0  0  0  0  0  0  0  0  0  0  0
    4.4794   -2.7317    7.4781 C   0  0  0  0  0  0  0  0  0  0  0  0
    5.0718   -2.3096    8.6555 C   0  0  0  0  0  0  0  0  0  0  0  0
    5.1337   -3.4335    9.5191 C   0  0  0  0  0  0  0  0  0  0  0  0
    4.5601   -4.4698    8.8264 C   0  0  0  0  0  0  0  0  0  0  0  0
    4.1842   -4.0537    7.6000 O   0  0  0  0  0  0  0  0  0  0  0  0
    2.7691   -2.2281    2.7894 C   0  0  0  0  0  0  0  0  0  0  0  0
    2.5605   -1.3803    1.6805 C   0  0  0  0  0  0  0  0  0  0  0  0
    3.3945    2.8402   -0.3167 H   0  0  0  0  0  0  0  0  0  0  0  0
    4.7861    1.9125    0.2465 H   0  0  0  0  0  0  0  0  0  0  0  0
    3.6669    2.6444    1.4133 H   0  0  0  0  0  0  0  0  0  0  0  0
    1.0781    1.9927   -0.0964 H   0  0  0  0  0  0  0  0  0  0  0  0
    1.3018    1.7824    1.6457 H   0  0  0  0  0  0  0  0  0  0  0  0
    0.7089    0.4430    0.6567 H   0  0  0  0  0  0  0  0  0  0  0  0
    2.6367    0.9466   -1.7388 H   0  0  0  0  0  0  0  0  0  0  0  0
    2.3664   -0.6691   -1.0901 H   0  0  0  0  0  0  0  0  0  0  0  0
    4.0133   -0.0350   -1.2185 H   0  0  0  0  0  0  0  0  0  0  0  0
    4.9502    0.9239    2.3447 H   0  0  0  0  0  0  0  0  0  0  0  0
    5.3269   -0.5222    4.1968 H   0  0  0  0  0  0  0  0  0  0  0  0
    3.2222   -4.3796    3.9495 H   0  0  0  0  0  0  0  0  0  0  0  0
    6.5622   -5.6819    5.3666 H   0  0  0  0  0  0  0  0  0  0  0  0
    6.6938   -3.3137    6.2856 H   0  0  0  0  0  0  0  0  0  0  0  0
    6.0416   -2.8574    4.7068 H   0  0  0  0  0  0  0  0  0  0  0  0
    7.1637   -3.3705    2.6053 H   0  0  0  0  0  0  0  0  0  0  0  0
    9.3785   -3.0520    1.5593 H   0  0  0  0  0  0  0  0  0  0  0  0
   11.4240   -3.0537    2.9690 H   0  0  0  0  0  0  0  0  0  0  0  0
   11.2565   -3.3934    5.4188 H   0  0  0  0  0  0  0  0  0  0  0  0
    9.0466   -3.7052    6.4795 H   0  0  0  0  0  0  0  0  0  0  0  0
    1.6557   -2.4859    6.4499 H   0  0  0  0  0  0  0  0  0  0  0  0
   -0.1178   -3.2379    7.9653 H   0  0  0  0  0  0  0  0  0  0  0  0
   -0.6583   -5.6733    8.0860 H   0  0  0  0  0  0  0  0  0  0  0  0
    2.1731   -6.6173    5.2828 H   0  0  0  0  0  0  0  0  0  0  0  0
    5.4450   -1.3111    8.8500 H   0  0  0  0  0  0  0  0  0  0  0  0
    5.5466   -3.4880   10.5162 H   0  0  0  0  0  0  0  0  0  0  0  0
    4.3641   -5.5125    9.0388 H   0  0  0  0  0  0  0  0  0  0  0  0
    2.1101   -3.0873    2.8645 H   0  0  0  0  0  0  0  0  0  0  0  0
    1.7773   -1.6524    0.9745 H   0  0  0  0  0  0  0  0  0  0  0  0
  1  2  1  0  0  0  0
  1 36  1  0  0  0  0
  1 37  1  0  0  0  0
  1 38  1  0  0  0  0
  2  3  1  0  0  0  0
  2  4  1  0  0  0  0
  2  5  1  0  0  0  0
  3 39  1  0  0  0  0
  3 40  1  0  0  0  0
  3 41  1  0  0  0  0
  4 42  1  0  0  0  0
  4 43  1  0  0  0  0
  4 44  1  0  0  0  0
  5  6  1  0  0  0  0
  5 35  2  0  0  0  0
  6  7  2  0  0  0  0
  6 45  1  0  0  0  0
  7  8  1  0  0  0  0
  7 46  1  0  0  0  0
  8  9  1  0  0  0  0
  8 34  2  0  0  0  0
  9 10  1  0  0  0  0
  9 27  1  0  0  0  0
 10 11  1  0  0  0  0
 10 21  1  0  0  0  0
 10 47  1  0  0  0  0
 11 12  2  0  0  0  0
 11 13  1  0  0  0  0
 13 14  1  0  0  0  0
 13 48  1  0  0  0  0
 14 15  1  0  0  0  0
 14 49  1  0  0  0  0
 14 50  1  0  0  0  0
 15 16  1  0  0  0  0
 15 20  2  0  0  0  0
 16 17  2  0  0  0  0
 16 51  1  0  0  0  0
 17 18  1  0  0  0  0
 17 52  1  0  0  0  0
 18 19  2  0  0  0  0
 18 53  1  0  0  0  0
 19 20  1  0  0  0  0
 19 54  1  0  0  0  0
 20 55  1  0  0  0  0
 21 22  1  0  0  0  0
 21 26  2  0  0  0  0
 22 23  2  0  0  0  0
 22 56  1  0  0  0  0
 23 24  1  0  0  0  0
 23 57  1  0  0  0  0
 24 25  2  0  0  0  0
 24 58  1  0  0  0  0
 25 26  1  0  0  0  0
 26 59  1  0  0  0  0
 27 28  2  0  0  0  0
 27 29  1  0  0  0  0
 29 30  2  0  0  0  0
 29 33  1  0  0  0  0
 30 31  1  0  0  0  0
 30 60  1  0  0  0  0
 31 32  2  0  0  0  0
 31 61  1  0  0  0  0
 32 33  1  0  0  0  0
 32 62  1  0  0  0  0
 34 35  1  0  0  0  0
 34 63  1  0  0  0  0
 35 64  1  0  0  0  0
M  END
$$$$
