
 OpenBabel07202414193D

 47 50  0  0  0  0  0  0  0  0999 V2000
    1.1910    0.5516    0.2857 O   0  0  0  0  0  0  0  0  0  0  0  0
    2.2909    0.1211   -0.0511 C   0  0  0  0  0  0  0  0  0  0  0  0
    2.7783   -1.1205    0.6026 C   0  0  0  0  0  0  0  0  0  0  0  0
    3.1908   -2.1823   -0.1881 C   0  0  0  0  0  0  0  0  0  0  0  0
    3.8252   -3.2817    0.2722 N   0  0  0  0  0  0  0  0  0  0  0  0
    3.9788   -3.3604    1.6122 C   0  0  0  0  0  0  0  0  0  0  0  0
    3.4680   -2.4356    2.5225 C   0  0  0  0  0  0  0  0  0  0  0  0
    3.5669   -2.6559    3.9104 C   0  0  0  0  0  0  0  0  0  0  0  0
    2.9907   -1.7636    4.8139 C   0  0  0  0  0  0  0  0  0  0  0  0
    2.3460   -0.6288    4.3391 C   0  0  0  0  0  0  0  0  0  0  0  0
    2.2847   -0.3777    2.9695 C   0  0  0  0  0  0  0  0  0  0  0  0
    2.8286   -1.2749    2.0170 C   0  0  0  0  0  0  0  0  0  0  0  0
    3.1080    0.7724   -0.9909 N   0  0  0  0  0  0  0  0  0  0  0  0
    4.3563    0.2633   -1.5703 C   0  0  0  0  0  0  0  0  0  0  0  0
    5.4732    1.2895   -1.4974 C   0  0  0  0  0  0  0  0  0  0  0  0
    5.0792    2.6199   -2.1495 C   0  0  0  0  0  0  0  0  0  0  0  0
    4.9564    2.5411   -3.6908 C   0  0  0  0  0  0  0  0  0  0  0  0
    6.1951    2.0328   -4.3957 C   0  0  0  0  0  0  0  0  0  0  0  0
    6.1330    0.8707   -5.1847 C   0  0  0  0  0  0  0  0  0  0  0  0
    7.2754    0.3850   -5.8239 C   0  0  0  0  0  0  0  0  0  0  0  0
    8.4796    1.0628   -5.6801 C   0  0  0  0  0  0  0  0  0  0  0  0
    9.5783    0.5945   -6.2876 F   0  0  0  0  0  0  0  0  0  0  0  0
    8.5606    2.2208   -4.9161 C   0  0  0  0  0  0  0  0  0  0  0  0
    7.4189    2.7086   -4.2790 C   0  0  0  0  0  0  0  0  0  0  0  0
    3.7656    3.1048   -1.5012 C   0  0  0  0  0  0  0  0  0  0  0  0
    2.6500    2.0508   -1.5392 C   0  0  0  0  0  0  0  0  0  0  0  0
    3.0596   -2.1644   -1.2661 H   0  0  0  0  0  0  0  0  0  0  0  0
    4.5220   -4.2375    1.9490 H   0  0  0  0  0  0  0  0  0  0  0  0
    4.0635   -3.5439    4.2923 H   0  0  0  0  0  0  0  0  0  0  0  0
    3.0385   -1.9644    5.8793 H   0  0  0  0  0  0  0  0  0  0  0  0
    1.8748    0.0577    5.0399 H   0  0  0  0  0  0  0  0  0  0  0  0
    1.7584    0.5227    2.6412 H   0  0  0  0  0  0  0  0  0  0  0  0
    4.1356   -0.0121   -2.6118 H   0  0  0  0  0  0  0  0  0  0  0  0
    4.7193   -0.6294   -1.0715 H   0  0  0  0  0  0  0  0  0  0  0  0
    6.3837    0.8772   -1.9433 H   0  0  0  0  0  0  0  0  0  0  0  0
    5.7049    1.4705   -0.4398 H   0  0  0  0  0  0  0  0  0  0  0  0
    5.8600    3.3509   -1.9071 H   0  0  0  0  0  0  0  0  0  0  0  0
    4.7346    3.5414   -4.0864 H   0  0  0  0  0  0  0  0  0  0  0  0
    4.1009    1.9183   -3.9757 H   0  0  0  0  0  0  0  0  0  0  0  0
    5.1952    0.3314   -5.3047 H   0  0  0  0  0  0  0  0  0  0  0  0
    7.2357   -0.5132   -6.4304 H   0  0  0  0  0  0  0  0  0  0  0  0
    9.5115    2.7347   -4.8209 H   0  0  0  0  0  0  0  0  0  0  0  0
    7.4919    3.6169   -3.6870 H   0  0  0  0  0  0  0  0  0  0  0  0
    3.4249    4.0320   -1.9832 H   0  0  0  0  0  0  0  0  0  0  0  0
    3.9715    3.3518   -0.4546 H   0  0  0  0  0  0  0  0  0  0  0  0
    2.3171    1.8712   -2.5679 H   0  0  0  0  0  0  0  0  0  0  0  0
    1.7863    2.4333   -0.9875 H   0  0  0  0  0  0  0  0  0  0  0  0
  1  2  2  0  0  0  0
  2  3  1  0  0  0  0
  2 13  1  0  0  0  0
  3  4  1  0  0  0  0
  3 12  2  0  0  0  0
  4  5  2  0  0  0  0
  4 27  1  0  0  0  0
  5  6  1  0  0  0  0
  6  7  2  0  0  0  0
  6 28  1  0  0  0  0
  7  8  1  0  0  0  0
  7 12  1  0  0  0  0
  8  9  2  0  0  0  0
  8 29  1  0  0  0  0
  9 10  1  0  0  0  0
  9 30  1  0  0  0  0
 10 11  2  0  0  0  0
 10 31  1  0  0  0  0
 11 12  1  0  0  0  0
 11 32  1  0  0  0  0
 13 14  1  0  0  0  0
 13 26  1  0  0  0  0
 14 15  1  0  0  0  0
 14 33  1  0  0  0  0
 14 34  1  0  0  0  0
 15 16  1  0  0  0  0
 15 35  1  0  0  0  0
 15 36  1  0  0  0  0
 16 17  1  0  0  0  0
 16 25  1  0  0  0  0
 16 37  1  0  0  0  0
 17 18  1  0  0  0  0
 17 38  1  0  0  0  0
 17 39  1  0  0  0  0
 18 19  1  0  0  0  0
 18 24  2  0  0  0  0
 19 20  2  0  0  0  0
 19 40  1  0  0  0  0
 20 21  1  0  0  0  0
 20 41  1  0  0  0  0
 21 22  1  0  0  0  0
 21 23  2  0  0  0  0
 23 24  1  0  0  0  0
 23 42  1  0  0  0  0
 24 43  1  0  0  0  0
 25 26  1  0  0  0  0
 25 44  1  0  0  0  0
 25 45  1  0  0  0  0
 26 46  1  0  0  0  0
 26 47  1  0  0  0  0
M  END
$$$$
