
 OpenBabel07202414133D

 48 51  0  0  0  0  0  0  0  0999 V2000
    0.8938    0.1750    0.2631 C   0  0  0  0  0  0  0  0  0  0  0  0
    1.9776   -0.7474   -0.0095 N   0  0  0  0  0  0  0  0  0  0  0  0
    2.2770   -1.0944   -1.3969 C   0  0  0  0  0  0  0  0  0  0  0  0
    2.8314   -1.1332    1.0112 C   0  0  0  0  0  0  0  0  0  0  0  0
    2.7628   -0.7076    2.3590 C   0  0  0  0  0  0  0  0  0  0  0  0
    3.6058   -1.2090    3.4397 C   0  0  0  0  0  0  0  0  0  0  0  0
    4.6432   -2.1261    3.2271 C   0  0  0  0  0  0  0  0  0  0  0  0
    4.7344   -2.3902    1.8379 C   0  0  0  0  0  0  0  0  0  0  0  0
    3.8683   -1.9969    0.7758 C   0  0  0  0  0  0  0  0  0  0  0  0
    5.6045   -2.7707    4.3027 N   0  0  0  0  0  0  0  0  0  0  0  0
    6.9249   -2.0732    4.5776 C   0  0  0  0  0  0  0  0  0  0  0  0
    7.6873   -1.2465    3.5027 C   0  0  0  0  0  0  0  0  0  0  0  0
    7.2596   -0.1145    2.8060 C   0  0  0  0  0  0  0  0  0  0  0  0
    8.5680    0.6326    1.9442 S   0  0  0  0  0  0  0  0  0  0  0  0
    9.6300   -0.5654    2.5635 C   0  0  0  0  0  0  0  0  0  0  0  0
    9.0574   -1.5294    3.2656 N   0  0  0  0  0  0  0  0  0  0  0  0
    5.2899   -4.1141    5.0521 C   0  0  0  0  0  0  0  0  0  0  0  0
    4.2325   -4.7042    4.7864 O   0  0  0  0  0  0  0  0  0  0  0  0
    6.3575   -4.8078    6.3034 C   0  0  0  0  0  0  0  0  0  0  0  0
    5.9840   -6.2153    7.0565 N   0  0  0  0  0  0  0  0  0  0  0  0
    4.6816   -6.9961    7.4623 C   0  0  0  0  0  0  0  0  0  0  0  0
    3.4471   -7.7672    7.8728 C   0  0  0  0  0  0  0  0  0  0  0  0
    3.0687   -8.8731    8.8404 C   0  0  0  0  0  0  0  0  0  0  0  0
    4.0368   -9.5596    9.4766 C   0  0  0  0  0  0  0  0  0  0  0  0
    5.2669   -9.1949    9.0078 C   0  0  0  0  0  0  0  0  0  0  0  0
    5.5968   -8.0782    8.1295 C   0  0  0  0  0  0  0  0  0  0  0  0
    6.8996   -7.8317    7.9826 N   0  0  0  0  0  0  0  0  0  0  0  0
    6.9764   -6.5560    7.8450 N   0  0  0  0  0  0  0  0  0  0  0  0
    0.3335    0.4143   -0.6477 H   0  0  0  0  0  0  0  0  0  0  0  0
    1.2703    1.1208    0.6661 H   0  0  0  0  0  0  0  0  0  0  0  0
    0.1863   -0.2670    0.9680 H   0  0  0  0  0  0  0  0  0  0  0  0
    1.4738   -0.7803   -2.0722 H   0  0  0  0  0  0  0  0  0  0  0  0
    2.3619   -2.1854   -1.4958 H   0  0  0  0  0  0  0  0  0  0  0  0
    3.2000   -0.6390   -1.7755 H   0  0  0  0  0  0  0  0  0  0  0  0
    1.9830    0.0031    2.6196 H   0  0  0  0  0  0  0  0  0  0  0  0
    3.3905   -0.8496    4.4345 H   0  0  0  0  0  0  0  0  0  0  0  0
    5.5473   -2.8795    1.3910 H   0  0  0  0  0  0  0  0  0  0  0  0
    4.0983   -2.3307   -0.2433 H   0  0  0  0  0  0  0  0  0  0  0  0
    7.6147   -2.8463    4.9298 H   0  0  0  0  0  0  0  0  0  0  0  0
    6.7208   -1.3978    5.4138 H   0  0  0  0  0  0  0  0  0  0  0  0
    6.3182    0.4127    2.8600 H   0  0  0  0  0  0  0  0  0  0  0  0
   10.7062   -0.4846    2.4286 H   0  0  0  0  0  0  0  0  0  0  0  0
    6.5587   -4.0874    7.1013 H   0  0  0  0  0  0  0  0  0  0  0  0
    7.2474   -5.1471    5.7648 H   0  0  0  0  0  0  0  0  0  0  0  0
    2.4628   -7.5355    7.3367 H   0  0  0  0  0  0  0  0  0  0  0  0
    2.0411   -9.2141    9.0472 H   0  0  0  0  0  0  0  0  0  0  0  0
    3.9028  -10.3381   10.2339 H   0  0  0  0  0  0  0  0  0  0  0  0
    6.1212   -9.7300    9.4090 H   0  0  0  0  0  0  0  0  0  0  0  0
  1  2  1  0  0  0  0
  1 29  1  0  0  0  0
  1 30  1  0  0  0  0
  1 31  1  0  0  0  0
  2  3  1  0  0  0  0
  2  4  1  0  0  0  0
  3 32  1  0  0  0  0
  3 33  1  0  0  0  0
  3 34  1  0  0  0  0
  4  5  1  0  0  0  0
  4  9  2  0  0  0  0
  5  6  2  0  0  0  0
  5 35  1  0  0  0  0
  6  7  1  0  0  0  0
  6 36  1  0  0  0  0
  7  8  2  0  0  0  0
  7 10  1  0  0  0  0
  8  9  1  0  0  0  0
  8 37  1  0  0  0  0
  9 38  1  0  0  0  0
 10 11  1  0  0  0  0
 10 17  1  0  0  0  0
 11 12  1  0  0  0  0
 11 39  1  0  0  0  0
 11 40  1  0  0  0  0
 12 13  2  0  0  0  0
 12 16  1  0  0  0  0
 13 14  1  0  0  0  0
 13 41  1  0  0  0  0
 14 15  1  0  0  0  0
 15 16  2  0  0  0  0
 15 42  1  0  0  0  0
 17 18  2  0  0  0  0
 17 19  1  0  0  0  0
 19 20  1  0  0  0  0
 19 43  1  0  0  0  0
 19 44  1  0  0  0  0
 20 21  1  0  0  0  0
 20 28  1  0  0  0  0
 21 22  1  0  0  0  0
 21 26  2  0  0  0  0
 22 23  2  0  0  0  0
 22 45  1  0  0  0  0
 23 24  1  0  0  0  0
 23 46  1  0  0  0  0
 24 25  2  0  0  0  0
 24 47  1  0  0  0  0
 25 26  1  0  0  0  0
 25 48  1  0  0  0  0
 26 27  1  0  0  0  0
 27 28  2  0  0  0  0
M  END
$$$$
