
 OpenBabel07202414133D

 52 55  0  0  1  0  0  0  0  0999 V2000
    2.8524    1.2368    1.4583 C   0  0  0  0  0  0  0  0  0  0  0  0
    2.6001    0.4752    0.2154 N   0  0  0  0  0  0  0  0  0  0  0  0
    1.1281    0.1175    0.0775 C   0  0  0  0  0  0  0  0  0  0  0  0
    0.5532   -0.6722    1.2422 C   0  0  0  0  0  0  0  0  0  0  0  0
    0.0763   -1.3272    2.2084 N   0  0  0  0  0  0  0  0  0  0  0  0
    3.1658    1.1923   -1.2187 S   0  0  0  0  0  0  0  0  0  0  0  0
    2.8783    0.2545   -2.2961 O   0  0  0  0  0  0  0  0  0  0  0  0
    2.6487    2.5471   -1.2668 O   0  0  0  0  0  0  0  0  0  0  0  0
    4.8295    1.2590   -1.0499 N   0  0  0  0  0  0  0  0  0  0  0  0
    5.5308    0.0016   -0.6913 C   0  0  0  0  0  0  0  0  0  0  0  0
    7.0159    0.0422   -1.0728 C   0  0  3  0  0  0  0  0  0  0  0  0
    7.2316   -0.2070   -2.5743 C   0  0  0  0  0  0  0  0  0  0  0  0
    7.9651   -1.1136   -2.9488 O   0  0  0  0  0  0  0  0  0  0  0  0
    6.5558    0.6754   -3.3979 N   0  0  0  0  0  0  0  0  0  0  0  0
    6.3437    0.5655   -4.7952 C   0  0  0  0  0  0  0  0  0  0  0  0
    6.8087   -0.5112   -5.5438 C   0  0  0  0  0  0  0  0  0  0  0  0
    6.3433   -0.8336   -6.7719 N   0  0  0  0  0  0  0  0  0  0  0  0
    5.4793    0.0345   -7.3323 C   0  0  0  0  0  0  0  0  0  0  0  0
    5.1762    1.2853   -6.8024 C   0  0  0  0  0  0  0  0  0  0  0  0
    4.5380    2.2705   -7.5777 C   0  0  0  0  0  0  0  0  0  0  0  0
    4.2706    3.5275   -7.0439 C   0  0  0  0  0  0  0  0  0  0  0  0
    4.5475    3.7767   -5.7062 C   0  0  0  0  0  0  0  0  0  0  0  0
    5.1680    2.7965   -4.9242 C   0  0  0  0  0  0  0  0  0  0  0  0
    5.5622    1.5473   -5.4699 C   0  0  0  0  0  0  0  0  0  0  0  0
    7.6865    1.3165   -0.6026 C   0  0  0  0  0  0  0  0  0  0  0  0
    9.0686    1.3241   -0.3425 C   0  0  0  0  0  0  0  0  0  0  0  0
    9.7094    2.5082    0.0162 C   0  0  0  0  0  0  0  0  0  0  0  0
   11.3909    2.4986    0.3778 Cl  0  0  0  0  0  0  0  0  0  0  0  0
    8.9931    3.6984    0.0919 C   0  0  0  0  0  0  0  0  0  0  0  0
    7.6152    3.6943   -0.1354 C   0  0  0  0  0  0  0  0  0  0  0  0
    6.9429    2.5012   -0.4536 C   0  0  0  0  0  0  0  0  0  0  0  0
    5.4313    2.5185   -0.5727 C   0  0  0  0  0  0  0  0  0  0  0  0
    2.5038    0.6802    2.3328 H   0  0  0  0  0  0  0  0  0  0  0  0
    2.3461    2.2035    1.4384 H   0  0  0  0  0  0  0  0  0  0  0  0
    3.9230    1.3839    1.6124 H   0  0  0  0  0  0  0  0  0  0  0  0
    0.9937   -0.5054   -0.8140 H   0  0  0  0  0  0  0  0  0  0  0  0
    0.5392    1.0340   -0.0465 H   0  0  0  0  0  0  0  0  0  0  0  0
    5.0537   -0.8504   -1.1881 H   0  0  0  0  0  0  0  0  0  0  0  0
    5.4410   -0.1478    0.3919 H   0  0  0  0  0  0  0  0  0  0  0  0
    7.4894   -0.8051   -0.5554 H   0  0  0  0  0  0  0  0  0  0  0  0
    5.9650    1.3475   -2.9249 H   0  0  0  0  0  0  0  0  0  0  0  0
    7.5677   -1.1944   -5.1776 H   0  0  0  0  0  0  0  0  0  0  0  0
    5.0275   -0.3120   -8.2581 H   0  0  0  0  0  0  0  0  0  0  0  0
    4.3104    2.0831   -8.6252 H   0  0  0  0  0  0  0  0  0  0  0  0
    3.8534    4.3110   -7.6721 H   0  0  0  0  0  0  0  0  0  0  0  0
    4.3082    4.7452   -5.2741 H   0  0  0  0  0  0  0  0  0  0  0  0
    5.3897    3.0549   -3.8941 H   0  0  0  0  0  0  0  0  0  0  0  0
    9.6452    0.4028   -0.4147 H   0  0  0  0  0  0  0  0  0  0  0  0
    9.4982    4.6277    0.3441 H   0  0  0  0  0  0  0  0  0  0  0  0
    7.0673    4.6314   -0.0509 H   0  0  0  0  0  0  0  0  0  0  0  0
    5.1732    3.3089   -1.2887 H   0  0  0  0  0  0  0  0  0  0  0  0
    5.0243    2.7894    0.4053 H   0  0  0  0  0  0  0  0  0  0  0  0
  1  2  1  0  0  0  0
  1 33  1  0  0  0  0
  1 34  1  0  0  0  0
  1 35  1  0  0  0  0
  2  3  1  0  0  0  0
  2  6  1  0  0  0  0
  3  4  1  0  0  0  0
  3 36  1  0  0  0  0
  3 37  1  0  0  0  0
  4  5  3  0  0  0  0
  6  7  2  0  0  0  0
  6  8  2  0  0  0  0
  6  9  1  0  0  0  0
  9 10  1  0  0  0  0
  9 32  1  0  0  0  0
 10 11  1  0  0  0  0
 10 38  1  0  0  0  0
 10 39  1  0  0  0  0
 11 12  1  0  0  0  0
 11 25  1  0  0  0  0
 11 40  1  0  0  0  0
 12 13  2  0  0  0  0
 12 14  1  0  0  0  0
 14 15  1  0  0  0  0
 14 41  1  0  0  0  0
 15 16  1  0  0  0  0
 15 24  2  0  0  0  0
 16 17  2  0  0  0  0
 16 42  1  0  0  0  0
 17 18  1  0  0  0  0
 18 19  2  0  0  0  0
 18 43  1  0  0  0  0
 19 20  1  0  0  0  0
 19 24  1  0  0  0  0
 20 21  2  0  0  0  0
 20 44  1  0  0  0  0
 21 22  1  0  0  0  0
 21 45  1  0  0  0  0
 22 23  2  0  0  0  0
 22 46  1  0  0  0  0
 23 24  1  0  0  0  0
 23 47  1  0  0  0  0
 25 26  1  0  0  0  0
 25 31  2  0  0  0  0
 26 27  2  0  0  0  0
 26 48  1  0  0  0  0
 27 28  1  0  0  0  0
 27 29  1  0  0  0  0
 29 30  2  0  0  0  0
 29 49  1  0  0  0  0
 30 31  1  0  0  0  0
 30 50  1  0  0  0  0
 31 32  1  0  0  0  0
 32 51  1  0  0  0  0
 32 52  1  0  0  0  0
M  END
$$$$
