
 OpenBabel07202414173D

 47 50  0  0  1  0  0  0  0  0999 V2000
    1.0562   -0.1385   -0.0936 Cl  0  0  0  0  0  0  0  0  0  0  0  0
    2.7718   -0.1496    0.0304 C   0  0  0  0  0  0  0  0  0  0  0  0
    3.4775    1.0399   -0.1183 C   0  0  0  0  0  0  0  0  0  0  0  0
    4.8698    1.0265   -0.0595 C   0  0  0  0  0  0  0  0  0  0  0  0
    5.5671   -0.1747    0.1532 C   0  0  0  0  0  0  0  0  0  0  0  0
    4.8508   -1.3723    0.3316 C   0  0  0  0  0  0  0  0  0  0  0  0
    3.4467   -1.3493    0.2647 C   0  0  0  0  0  0  0  0  0  0  0  0
    5.5872   -2.6755    0.5929 C   0  0  3  0  0  0  0  0  0  0  0  0
    5.5242   -3.1197    2.0594 C   0  0  0  0  0  0  0  0  0  0  0  0
    5.0469   -4.2120    2.3547 O   0  0  0  0  0  0  0  0  0  0  0  0
    6.0408   -2.2012    2.9548 N   0  0  0  0  0  0  0  0  0  0  0  0
    5.9685   -2.2557    4.3709 C   0  0  0  0  0  0  0  0  0  0  0  0
    5.6414   -3.4213    5.0650 C   0  0  0  0  0  0  0  0  0  0  0  0
    5.4069   -3.4810    6.3961 N   0  0  0  0  0  0  0  0  0  0  0  0
    5.5436   -2.3294    7.0830 C   0  0  0  0  0  0  0  0  0  0  0  0
    5.9900   -1.1295    6.5315 C   0  0  0  0  0  0  0  0  0  0  0  0
    6.2266   -0.0039    7.3417 C   0  0  0  0  0  0  0  0  0  0  0  0
    6.6771    1.1907    6.7864 C   0  0  0  0  0  0  0  0  0  0  0  0
    6.8629    1.2826    5.4145 C   0  0  0  0  0  0  0  0  0  0  0  0
    6.6266    0.1714    4.6001 C   0  0  0  0  0  0  0  0  0  0  0  0
    6.2037   -1.0747    5.1336 C   0  0  0  0  0  0  0  0  0  0  0  0
    7.0389   -2.6251    0.0966 C   0  0  0  0  0  0  0  0  0  0  0  0
    7.7530   -1.3903    0.5811 N   0  0  0  0  0  0  0  0  0  0  0  0
    9.4429   -1.3425    0.1588 S   0  0  0  0  0  0  0  0  0  0  0  0
    9.5554   -1.9663   -1.1390 O   0  0  0  0  0  0  0  0  0  0  0  0
    9.8602    0.0260    0.3804 O   0  0  0  0  0  0  0  0  0  0  0  0
   10.1918   -2.3655    1.4083 C   0  0  0  0  0  0  0  0  0  0  0  0
   11.6280   -2.2984    1.1500 C   0  0  0  0  0  0  0  0  0  0  0  0
   12.7800   -2.2755    0.9882 N   0  0  0  0  0  0  0  0  0  0  0  0
    7.0772   -0.1457    0.0929 C   0  0  0  0  0  0  0  0  0  0  0  0
    2.9537    1.9757   -0.2973 H   0  0  0  0  0  0  0  0  0  0  0  0
    5.4126    1.9603   -0.2023 H   0  0  0  0  0  0  0  0  0  0  0  0
    2.8747   -2.2691    0.3778 H   0  0  0  0  0  0  0  0  0  0  0  0
    5.0805   -3.4620    0.0151 H   0  0  0  0  0  0  0  0  0  0  0  0
    6.3122   -1.3168    2.5489 H   0  0  0  0  0  0  0  0  0  0  0  0
    5.5646   -4.3865    4.5744 H   0  0  0  0  0  0  0  0  0  0  0  0
    5.2757   -2.4025    8.1347 H   0  0  0  0  0  0  0  0  0  0  0  0
    6.0819   -0.0593    8.4192 H   0  0  0  0  0  0  0  0  0  0  0  0
    6.8834    2.0466    7.4240 H   0  0  0  0  0  0  0  0  0  0  0  0
    7.1987    2.2177    4.9723 H   0  0  0  0  0  0  0  0  0  0  0  0
    6.7982    0.3061    3.5373 H   0  0  0  0  0  0  0  0  0  0  0  0
    7.0331   -2.6204   -1.0017 H   0  0  0  0  0  0  0  0  0  0  0  0
    7.5779   -3.5172    0.4332 H   0  0  0  0  0  0  0  0  0  0  0  0
    9.8107   -3.3821    1.3149 H   0  0  0  0  0  0  0  0  0  0  0  0
    9.9417   -1.9452    2.3860 H   0  0  0  0  0  0  0  0  0  0  0  0
    7.3645    0.0514   -0.9464 H   0  0  0  0  0  0  0  0  0  0  0  0
    7.4147    0.6813    0.7299 H   0  0  0  0  0  0  0  0  0  0  0  0
  1  2  1  0  0  0  0
  2  3  1  0  0  0  0
  2  7  2  0  0  0  0
  3  4  2  0  0  0  0
  3 31  1  0  0  0  0
  4  5  1  0  0  0  0
  4 32  1  0  0  0  0
  5  6  2  0  0  0  0
  5 30  1  0  0  0  0
  6  7  1  0  0  0  0
  6  8  1  0  0  0  0
  7 33  1  0  0  0  0
  8  9  1  0  0  0  0
  8 22  1  0  0  0  0
  8 34  1  0  0  0  0
  9 10  2  0  0  0  0
  9 11  1  0  0  0  0
 11 12  1  0  0  0  0
 11 35  1  0  0  0  0
 12 13  1  0  0  0  0
 12 21  2  0  0  0  0
 13 14  2  0  0  0  0
 13 36  1  0  0  0  0
 14 15  1  0  0  0  0
 15 16  2  0  0  0  0
 15 37  1  0  0  0  0
 16 17  1  0  0  0  0
 16 21  1  0  0  0  0
 17 18  2  0  0  0  0
 17 38  1  0  0  0  0
 18 19  1  0  0  0  0
 18 39  1  0  0  0  0
 19 20  2  0  0  0  0
 19 40  1  0  0  0  0
 20 21  1  0  0  0  0
 20 41  1  0  0  0  0
 22 23  1  0  0  0  0
 22 42  1  0  0  0  0
 22 43  1  0  0  0  0
 23 24  1  0  0  0  0
 23 30  1  0  0  0  0
 24 25  2  0  0  0  0
 24 26  2  0  0  0  0
 24 27  1  0  0  0  0
 27 28  1  0  0  0  0
 27 44  1  0  0  0  0
 27 45  1  0  0  0  0
 28 29  3  0  0  0  0
 30 46  1  0  0  0  0
 30 47  1  0  0  0  0
M  END
$$$$
