
 OpenBabel07202414203D

 46 48  0  0  0  0  0  0  0  0999 V2000
   -0.0063   -0.3231   -0.9058 C   0  0  0  0  0  0  0  0  0  0  0  0
    0.6965    0.8846   -0.9295 C   0  0  0  0  0  0  0  0  0  0  0  0
    1.5886    1.2124    0.1015 C   0  0  0  0  0  0  0  0  0  0  0  0
    1.7790    0.3100    1.1532 C   0  0  0  0  0  0  0  0  0  0  0  0
    1.0556   -0.8847    1.1825 C   0  0  0  0  0  0  0  0  0  0  0  0
    0.1666   -1.2062    0.1584 C   0  0  0  0  0  0  0  0  0  0  0  0
    1.2438   -1.9642    2.5101 Cl  0  0  0  0  0  0  0  0  0  0  0  0
    2.2890    2.4517    0.0684 N   0  0  0  0  0  0  0  0  0  0  0  0
    3.7632    2.4612    0.2304 C   0  0  0  0  0  0  0  0  0  0  0  0
    4.5118    1.3476   -0.5330 C   0  0  0  0  0  0  0  0  0  0  0  0
    5.9919    1.4000   -0.4991 N   0  0  0  0  0  0  0  0  0  0  0  0
    6.5820    2.6037   -1.1334 C   0  0  0  0  0  0  0  0  0  0  0  0
    6.4022    2.6562   -2.6601 C   0  0  0  0  0  0  0  0  0  0  0  0
    6.9478    1.4883   -3.2888 O   0  0  0  0  0  0  0  0  0  0  0  0
    6.3792    0.2909   -2.7450 C   0  0  0  0  0  0  0  0  0  0  0  0
    6.5525    0.2233   -1.2148 C   0  0  0  0  0  0  0  0  0  0  0  0
    1.6643    3.7094   -0.0049 C   0  0  0  0  0  0  0  0  0  0  0  0
    2.3355    4.7367   -0.1001 O   0  0  0  0  0  0  0  0  0  0  0  0
    0.2836    3.7102    0.1024 N   0  0  0  0  0  0  0  0  0  0  0  0
   -0.5467    4.8600    0.0590 C   0  0  0  0  0  0  0  0  0  0  0  0
   -0.1117    6.1194   -0.3539 C   0  0  0  0  0  0  0  0  0  0  0  0
   -0.9775    7.2106   -0.2988 C   0  0  0  0  0  0  0  0  0  0  0  0
   -2.2694    7.0064    0.1491 C   0  0  0  0  0  0  0  0  0  0  0  0
   -2.7507    5.8026    0.5130 N   0  0  0  0  0  0  0  0  0  0  0  0
   -1.8804    4.7627    0.4575 C   0  0  0  0  0  0  0  0  0  0  0  0
   -0.6855   -0.5766   -1.7172 H   0  0  0  0  0  0  0  0  0  0  0  0
    0.5657    1.5528   -1.7795 H   0  0  0  0  0  0  0  0  0  0  0  0
    2.4551    0.5475    1.9698 H   0  0  0  0  0  0  0  0  0  0  0  0
   -0.3918   -2.1393    0.1839 H   0  0  0  0  0  0  0  0  0  0  0  0
    3.9881    2.4434    1.3021 H   0  0  0  0  0  0  0  0  0  0  0  0
    4.1334    3.4185   -0.1485 H   0  0  0  0  0  0  0  0  0  0  0  0
    4.1373    1.3291   -1.5618 H   0  0  0  0  0  0  0  0  0  0  0  0
    4.2253    0.3921   -0.0801 H   0  0  0  0  0  0  0  0  0  0  0  0
    7.6615    2.5824   -0.9243 H   0  0  0  0  0  0  0  0  0  0  0  0
    6.2180    3.5245   -0.6682 H   0  0  0  0  0  0  0  0  0  0  0  0
    6.9379    3.5215   -3.0647 H   0  0  0  0  0  0  0  0  0  0  0  0
    5.3486    2.7634   -2.9401 H   0  0  0  0  0  0  0  0  0  0  0  0
    6.8914   -0.5573   -3.2099 H   0  0  0  0  0  0  0  0  0  0  0  0
    5.3257    0.2296   -3.0398 H   0  0  0  0  0  0  0  0  0  0  0  0
    7.6256    0.1749   -0.9873 H   0  0  0  0  0  0  0  0  0  0  0  0
    6.1168   -0.7036   -0.8242 H   0  0  0  0  0  0  0  0  0  0  0  0
   -0.1422    2.8607    0.4436 H   0  0  0  0  0  0  0  0  0  0  0  0
    0.8922    6.2903   -0.7218 H   0  0  0  0  0  0  0  0  0  0  0  0
   -0.6323    8.1994   -0.5917 H   0  0  0  0  0  0  0  0  0  0  0  0
   -2.9669    7.8376    0.2240 H   0  0  0  0  0  0  0  0  0  0  0  0
   -2.3085    3.8169    0.7773 H   0  0  0  0  0  0  0  0  0  0  0  0
  1  2  1  0  0  0  0
  1  6  2  0  0  0  0
  1 26  1  0  0  0  0
  2  3  2  0  0  0  0
  2 27  1  0  0  0  0
  3  4  1  0  0  0  0
  3  8  1  0  0  0  0
  4  5  2  0  0  0  0
  4 28  1  0  0  0  0
  5  6  1  0  0  0  0
  5  7  1  0  0  0  0
  6 29  1  0  0  0  0
  8  9  1  0  0  0  0
  8 17  1  0  0  0  0
  9 10  1  0  0  0  0
  9 30  1  0  0  0  0
  9 31  1  0  0  0  0
 10 11  1  0  0  0  0
 10 32  1  0  0  0  0
 10 33  1  0  0  0  0
 11 12  1  0  0  0  0
 11 16  1  0  0  0  0
 12 13  1  0  0  0  0
 12 34  1  0  0  0  0
 12 35  1  0  0  0  0
 13 14  1  0  0  0  0
 13 36  1  0  0  0  0
 13 37  1  0  0  0  0
 14 15  1  0  0  0  0
 15 16  1  0  0  0  0
 15 38  1  0  0  0  0
 15 39  1  0  0  0  0
 16 40  1  0  0  0  0
 16 41  1  0  0  0  0
 17 18  2  0  0  0  0
 17 19  1  0  0  0  0
 19 20  1  0  0  0  0
 19 42  1  0  0  0  0
 20 21  1  0  0  0  0
 20 25  2  0  0  0  0
 21 22  2  0  0  0  0
 21 43  1  0  0  0  0
 22 23  1  0  0  0  0
 22 44  1  0  0  0  0
 23 24  2  0  0  0  0
 23 45  1  0  0  0  0
 24 25  1  0  0  0  0
 25 46  1  0  0  0  0
M  END
$$$$
