
 OpenBabel07202414153D

 51 54  0  0  0  0  0  0  0  0999 V2000
    2.6468   -1.0054   -0.3014 C   0  0  0  0  0  0  0  0  0  0  0  0
    3.5172   -0.3486    0.6104 O   0  0  0  0  0  0  0  0  0  0  0  0
    3.7860    0.9721    0.3800 C   0  0  0  0  0  0  0  0  0  0  0  0
    3.1418    1.8060   -0.5359 C   0  0  0  0  0  0  0  0  0  0  0  0
    3.5651    3.1357   -0.7036 C   0  0  0  0  0  0  0  0  0  0  0  0
    4.6389    3.6319    0.0405 C   0  0  0  0  0  0  0  0  0  0  0  0
    5.2035    4.9194   -0.2253 N   0  0  0  0  0  0  0  0  0  0  0  0
    6.1787    4.9486   -1.3314 C   0  0  0  0  0  0  0  0  0  0  0  0
    7.6348    4.7148   -0.9752 C   0  0  0  0  0  0  0  0  0  0  0  0
    8.1278    4.6327    0.3327 C   0  0  0  0  0  0  0  0  0  0  0  0
    9.4633    4.2901    0.5726 C   0  0  0  0  0  0  0  0  0  0  0  0
   10.3347    4.0701   -0.4904 C   0  0  0  0  0  0  0  0  0  0  0  0
    9.8820    4.2233   -1.7972 C   0  0  0  0  0  0  0  0  0  0  0  0
    8.5446    4.5461   -2.0353 C   0  0  0  0  0  0  0  0  0  0  0  0
    4.5059    6.0594    0.1866 C   0  0  0  0  0  0  0  0  0  0  0  0
    3.4189    6.0116    0.7683 O   0  0  0  0  0  0  0  0  0  0  0  0
    5.1787    7.4151   -0.0302 C   0  0  0  0  0  0  0  0  0  0  0  0
    4.6148    8.3192   -1.1098 C   0  0  0  0  0  0  0  0  0  0  0  0
    3.4682    7.9920   -1.8283 C   0  0  0  0  0  0  0  0  0  0  0  0
    2.8915    8.7885   -2.7582 N   0  0  0  0  0  0  0  0  0  0  0  0
    3.4931    9.9707   -3.0049 C   0  0  0  0  0  0  0  0  0  0  0  0
    4.6751   10.3982   -2.4028 C   0  0  0  0  0  0  0  0  0  0  0  0
    5.2860   11.6093   -2.7679 C   0  0  0  0  0  0  0  0  0  0  0  0
    6.4724   12.0189   -2.1596 C   0  0  0  0  0  0  0  0  0  0  0  0
    7.0303   11.2397   -1.1573 C   0  0  0  0  0  0  0  0  0  0  0  0
    6.4229   10.0359   -0.7836 C   0  0  0  0  0  0  0  0  0  0  0  0
    5.2455    9.5657   -1.4143 C   0  0  0  0  0  0  0  0  0  0  0  0
    5.2344    2.8148    1.0032 C   0  0  0  0  0  0  0  0  0  0  0  0
    4.8114    1.4945    1.1679 C   0  0  0  0  0  0  0  0  0  0  0  0
    2.6237   -2.0656   -0.0340 H   0  0  0  0  0  0  0  0  0  0  0  0
    3.0120   -0.9310   -1.3313 H   0  0  0  0  0  0  0  0  0  0  0  0
    1.6274   -0.6173   -0.2146 H   0  0  0  0  0  0  0  0  0  0  0  0
    2.3099    1.4513   -1.1359 H   0  0  0  0  0  0  0  0  0  0  0  0
    3.0576    3.7683   -1.4256 H   0  0  0  0  0  0  0  0  0  0  0  0
    6.1005    5.8996   -1.8723 H   0  0  0  0  0  0  0  0  0  0  0  0
    5.8846    4.1739   -2.0529 H   0  0  0  0  0  0  0  0  0  0  0  0
    7.4810    4.8074    1.1874 H   0  0  0  0  0  0  0  0  0  0  0  0
    9.8219    4.1823    1.5937 H   0  0  0  0  0  0  0  0  0  0  0  0
   11.3663    3.7808   -0.3029 H   0  0  0  0  0  0  0  0  0  0  0  0
   10.5630    4.0742   -2.6312 H   0  0  0  0  0  0  0  0  0  0  0  0
    8.2092    4.6491   -3.0659 H   0  0  0  0  0  0  0  0  0  0  0  0
    6.2533    7.2712   -0.1822 H   0  0  0  0  0  0  0  0  0  0  0  0
    5.0815    7.9466    0.9263 H   0  0  0  0  0  0  0  0  0  0  0  0
    2.9408    7.0548   -1.6798 H   0  0  0  0  0  0  0  0  0  0  0  0
    2.9721   10.5949   -3.7279 H   0  0  0  0  0  0  0  0  0  0  0  0
    4.8519   12.2390   -3.5439 H   0  0  0  0  0  0  0  0  0  0  0  0
    6.9564   12.9418   -2.4690 H   0  0  0  0  0  0  0  0  0  0  0  0
    7.9456   11.5598   -0.6627 H   0  0  0  0  0  0  0  0  0  0  0  0
    6.8932    9.4661    0.0142 H   0  0  0  0  0  0  0  0  0  0  0  0
    6.0347    3.1829    1.6347 H   0  0  0  0  0  0  0  0  0  0  0  0
    5.2986    0.8625    1.9060 H   0  0  0  0  0  0  0  0  0  0  0  0
  1  2  1  0  0  0  0
  1 30  1  0  0  0  0
  1 31  1  0  0  0  0
  1 32  1  0  0  0  0
  2  3  1  0  0  0  0
  3  4  1  0  0  0  0
  3 29  2  0  0  0  0
  4  5  2  0  0  0  0
  4 33  1  0  0  0  0
  5  6  1  0  0  0  0
  5 34  1  0  0  0  0
  6  7  1  0  0  0  0
  6 28  2  0  0  0  0
  7  8  1  0  0  0  0
  7 15  1  0  0  0  0
  8  9  1  0  0  0  0
  8 35  1  0  0  0  0
  8 36  1  0  0  0  0
  9 10  1  0  0  0  0
  9 14  2  0  0  0  0
 10 11  2  0  0  0  0
 10 37  1  0  0  0  0
 11 12  1  0  0  0  0
 11 38  1  0  0  0  0
 12 13  2  0  0  0  0
 12 39  1  0  0  0  0
 13 14  1  0  0  0  0
 13 40  1  0  0  0  0
 14 41  1  0  0  0  0
 15 16  2  0  0  0  0
 15 17  1  0  0  0  0
 17 18  1  0  0  0  0
 17 42  1  0  0  0  0
 17 43  1  0  0  0  0
 18 19  1  0  0  0  0
 18 27  2  0  0  0  0
 19 20  2  0  0  0  0
 19 44  1  0  0  0  0
 20 21  1  0  0  0  0
 21 22  2  0  0  0  0
 21 45  1  0  0  0  0
 22 23  1  0  0  0  0
 22 27  1  0  0  0  0
 23 24  2  0  0  0  0
 23 46  1  0  0  0  0
 24 25  1  0  0  0  0
 24 47  1  0  0  0  0
 25 26  2  0  0  0  0
 25 48  1  0  0  0  0
 26 27  1  0  0  0  0
 26 49  1  0  0  0  0
 28 29  1  0  0  0  0
 28 50  1  0  0  0  0
 29 51  1  0  0  0  0
M  END
$$$$
