
 OpenBabel07202414143D

 76 81  0  0  1  0  0  0  0  0999 V2000
    0.8744   -0.8110    0.5677 C   0  0  0  0  0  0  0  0  0  0  0  0
    2.1346   -1.4672    0.4990 O   0  0  0  0  0  0  0  0  0  0  0  0
    3.2512   -0.6016    0.8041 C   0  0  0  0  0  0  0  0  0  0  0  0
    3.1729    0.0482    2.1678 C   0  0  0  0  0  0  0  0  0  0  0  0
    3.1259   -1.2631    3.3590 S   0  0  0  0  0  0  0  0  0  0  0  0
    2.0035   -2.1339    3.1281 O   0  0  0  0  0  0  0  0  0  0  0  0
    4.5101   -1.6736    3.4743 O   0  0  0  0  0  0  0  0  0  0  0  0
    2.7538   -0.5043    4.8345 N   0  0  0  0  0  0  0  0  0  0  0  0
    3.7606    0.4254    5.3955 C   0  0  0  0  0  0  0  0  0  0  0  0
    4.8438   -0.2333    6.2241 C   0  0  0  0  0  0  0  0  0  0  0  0
    6.0145    0.4802    6.5185 C   0  0  0  0  0  0  0  0  0  0  0  0
    7.0386   -0.0987    7.2753 C   0  0  0  0  0  0  0  0  0  0  0  0
    6.8928   -1.3874    7.7728 C   0  0  0  0  0  0  0  0  0  0  0  0
    8.1463   -2.1215    8.6904 Cl  0  0  0  0  0  0  0  0  0  0  0  0
    5.7401   -2.1001    7.5060 C   0  0  0  0  0  0  0  0  0  0  0  0
    4.7034   -1.5474    6.7264 C   0  0  0  0  0  0  0  0  0  0  0  0
    3.4978   -2.4186    6.3383 C   0  0  3  0  0  0  0  0  0  0  0  0
    2.8889   -3.1309    7.5602 C   0  0  0  0  0  0  0  0  0  0  0  0
    3.0833   -4.6076    7.3062 C   0  0  0  0  0  0  0  0  0  0  0  0
    4.2367   -4.7000    6.4714 N   0  0  0  0  0  0  0  0  0  0  0  0
    5.0439   -5.8850    6.2604 C   0  0  0  0  0  0  0  0  0  0  0  0
    5.7682   -6.0955    5.0877 C   0  0  0  0  0  0  0  0  0  0  0  0
    6.2039   -7.3236    4.6823 N   0  0  0  0  0  0  0  0  0  0  0  0
    5.9961   -8.3430    5.5295 C   0  0  0  0  0  0  0  0  0  0  0  0
    5.6304   -8.1979    6.8625 C   0  0  0  0  0  0  0  0  0  0  0  0
    5.7343   -9.2097    7.8402 C   0  0  0  0  0  0  0  0  0  0  0  0
    5.2138   -9.0398    9.1324 C   0  0  0  0  0  0  0  0  0  0  0  0
    4.6374   -7.8218    9.4620 C   0  0  0  0  0  0  0  0  0  0  0  0
    3.9750   -7.6814   10.6606 O   0  0  0  0  0  0  0  0  0  0  0  0
    2.8817   -6.7216   10.6164 C   0  0  0  0  0  0  0  0  0  0  0  0
    1.7829   -7.1128   11.6211 C   0  0  0  0  0  0  0  0  0  0  0  0
    0.6117   -6.2042   11.6721 N   0  0  0  0  0  0  0  0  0  0  0  0
   -0.0935   -6.1039   10.3920 C   0  0  0  0  0  0  0  0  0  0  0  0
   -0.3270   -6.6774   12.6992 C   0  0  0  0  0  0  0  0  0  0  0  0
    4.8015   -6.7758    8.5736 C   0  0  0  0  0  0  0  0  0  0  0  0
    5.1348   -6.9176    7.2313 C   0  0  0  0  0  0  0  0  0  0  0  0
    4.0804   -3.6634    5.5255 C   0  0  0  0  0  0  0  0  0  0  0  0
    4.4418   -3.7818    4.3893 O   0  0  0  0  0  0  0  0  0  0  0  0
    2.3523   -1.5100    5.8533 C   0  0  0  0  0  0  0  0  0  0  0  0
    3.7014    0.2208   -0.3966 C   0  0  0  0  0  0  0  0  0  0  0  0
    4.5339   -0.9457    0.0443 C   0  0  0  0  0  0  0  0  0  0  0  0
    0.1171   -1.4963    0.2020 H   0  0  0  0  0  0  0  0  0  0  0  0
    0.8812    0.0876   -0.0485 H   0  0  0  0  0  0  0  0  0  0  0  0
    0.6261   -0.5370    1.6032 H   0  0  0  0  0  0  0  0  0  0  0  0
    2.2512    0.5997    2.3128 H   0  0  0  0  0  0  0  0  0  0  0  0
    4.0357    0.6702    2.3904 H   0  0  0  0  0  0  0  0  0  0  0  0
    3.2296    1.1416    6.0381 H   0  0  0  0  0  0  0  0  0  0  0  0
    4.1963    1.0178    4.5859 H   0  0  0  0  0  0  0  0  0  0  0  0
    6.1529    1.4904    6.1370 H   0  0  0  0  0  0  0  0  0  0  0  0
    7.9550    0.4525    7.4590 H   0  0  0  0  0  0  0  0  0  0  0  0
    5.6721   -3.1194    7.8841 H   0  0  0  0  0  0  0  0  0  0  0  0
    1.8179   -2.9419    7.7025 H   0  0  0  0  0  0  0  0  0  0  0  0
    3.3728   -2.8303    8.4938 H   0  0  0  0  0  0  0  0  0  0  0  0
    2.2314   -5.0232    6.7439 H   0  0  0  0  0  0  0  0  0  0  0  0
    3.1173   -5.0644    8.2721 H   0  0  0  0  0  0  0  0  0  0  0  0
    5.9978   -5.3121    4.3742 H   0  0  0  0  0  0  0  0  0  0  0  0
    6.0662   -9.3338    5.0755 H   0  0  0  0  0  0  0  0  0  0  0  0
    6.2652  -10.1399    7.6108 H   0  0  0  0  0  0  0  0  0  0  0  0
    5.2883   -9.8266    9.8746 H   0  0  0  0  0  0  0  0  0  0  0  0
    2.4429   -6.6840    9.6125 H   0  0  0  0  0  0  0  0  0  0  0  0
    3.2650   -5.7298   10.8864 H   0  0  0  0  0  0  0  0  0  0  0  0
    2.2562   -7.1207   12.6113 H   0  0  0  0  0  0  0  0  0  0  0  0
    1.4675   -8.1451   11.4245 H   0  0  0  0  0  0  0  0  0  0  0  0
    0.5361   -5.6389    9.6273 H   0  0  0  0  0  0  0  0  0  0  0  0
   -0.9714   -5.4527   10.4866 H   0  0  0  0  0  0  0  0  0  0  0  0
   -0.4321   -7.0793   10.0259 H   0  0  0  0  0  0  0  0  0  0  0  0
    0.1551   -6.7050   13.6821 H   0  0  0  0  0  0  0  0  0  0  0  0
   -0.7107   -7.6796   12.4730 H   0  0  0  0  0  0  0  0  0  0  0  0
   -1.1825   -5.9974   12.7900 H   0  0  0  0  0  0  0  0  0  0  0  0
    4.7292   -5.7697    8.9916 H   0  0  0  0  0  0  0  0  0  0  0  0
    1.9795   -0.9216    6.7163 H   0  0  0  0  0  0  0  0  0  0  0  0
    1.4696   -2.0757    5.5263 H   0  0  0  0  0  0  0  0  0  0  0  0
    4.1475    1.2006   -0.2839 H   0  0  0  0  0  0  0  0  0  0  0  0
    3.1533    0.1137   -1.3277 H   0  0  0  0  0  0  0  0  0  0  0  0
    5.5300   -0.7102    0.4004 H   0  0  0  0  0  0  0  0  0  0  0  0
    4.5315   -1.8265   -0.5946 H   0  0  0  0  0  0  0  0  0  0  0  0
  1  2  1  0  0  0  0
  1 42  1  0  0  0  0
  1 43  1  0  0  0  0
  1 44  1  0  0  0  0
  2  3  1  0  0  0  0
  3  4  1  0  0  0  0
  3 40  1  0  0  0  0
  3 41  1  0  0  0  0
  4  5  1  0  0  0  0
  4 45  1  0  0  0  0
  4 46  1  0  0  0  0
  5  6  2  0  0  0  0
  5  7  2  0  0  0  0
  5  8  1  0  0  0  0
  8  9  1  0  0  0  0
  8 39  1  0  0  0  0
  9 10  1  0  0  0  0
  9 47  1  0  0  0  0
  9 48  1  0  0  0  0
 10 11  1  0  0  0  0
 10 16  2  0  0  0  0
 11 12  2  0  0  0  0
 11 49  1  0  0  0  0
 12 13  1  0  0  0  0
 12 50  1  0  0  0  0
 13 14  1  0  0  0  0
 13 15  2  0  0  0  0
 15 16  1  0  0  0  0
 15 51  1  0  0  0  0
 16 17  1  0  0  0  0
 17 18  1  0  0  0  0
 17 37  1  0  0  0  0
 17 39  1  0  0  0  0
 18 19  1  0  0  0  0
 18 52  1  0  0  0  0
 18 53  1  0  0  0  0
 19 20  1  0  0  0  0
 19 54  1  0  0  0  0
 19 55  1  0  0  0  0
 20 21  1  0  0  0  0
 20 37  1  0  0  0  0
 21 22  1  0  0  0  0
 21 36  2  0  0  0  0
 22 23  2  0  0  0  0
 22 56  1  0  0  0  0
 23 24  1  0  0  0  0
 24 25  2  0  0  0  0
 24 57  1  0  0  0  0
 25 26  1  0  0  0  0
 25 36  1  0  0  0  0
 26 27  2  0  0  0  0
 26 58  1  0  0  0  0
 27 28  1  0  0  0  0
 27 59  1  0  0  0  0
 28 29  1  0  0  0  0
 28 35  2  0  0  0  0
 29 30  1  0  0  0  0
 30 31  1  0  0  0  0
 30 60  1  0  0  0  0
 30 61  1  0  0  0  0
 31 32  1  0  0  0  0
 31 62  1  0  0  0  0
 31 63  1  0  0  0  0
 32 33  1  0  0  0  0
 32 34  1  0  0  0  0
 33 64  1  0  0  0  0
 33 65  1  0  0  0  0
 33 66  1  0  0  0  0
 34 67  1  0  0  0  0
 34 68  1  0  0  0  0
 34 69  1  0  0  0  0
 35 36  1  0  0  0  0
 35 70  1  0  0  0  0
 37 38  2  0  0  0  0
 39 71  1  0  0  0  0
 39 72  1  0  0  0  0
 40 41  1  0  0  0  0
 40 73  1  0  0  0  0
 40 74  1  0  0  0  0
 41 75  1  0  0  0  0
 41 76  1  0  0  0  0
M  END
$$$$
