
 OpenBabel07202414153D

 42 45  0  0  1  0  0  0  0  0999 V2000
    2.8940   -0.1402   -1.2870 C   0  0  0  0  0  0  0  0  0  0  0  0
    2.4302    0.0139    0.2319 C   0  0  1  0  0  0  0  0  0  0  0  0
    3.0257   -1.1697    0.9844 C   0  0  0  0  0  0  0  0  0  0  0  0
    4.4571   -1.1956    0.8896 O   0  0  0  0  0  0  0  0  0  0  0  0
    5.0756    0.0189    1.0654 C   0  0  0  0  0  0  0  0  0  0  0  0
    4.3914    1.2474    1.1445 C   0  0  0  0  0  0  0  0  0  0  0  0
    5.1251    2.4350    1.0961 C   0  0  0  0  0  0  0  0  0  0  0  0
    6.5134    2.3977    1.1748 C   0  0  0  0  0  0  0  0  0  0  0  0
    7.3827    3.8747    1.2991 Cl  0  0  0  0  0  0  0  0  0  0  0  0
    7.1891    1.1801    1.2093 C   0  0  0  0  0  0  0  0  0  0  0  0
    6.4718   -0.0123    1.1005 C   0  0  0  0  0  0  0  0  0  0  0  0
    2.8917    1.3162    1.1092 C   0  0  2  0  0  0  0  0  0  0  0  0
    2.0193    1.7487    2.6285 C   0  0  0  0  0  0  0  0  0  0  0  0
    0.7910    1.8175    2.3991 O   0  0  0  0  0  0  0  0  0  0  0  0
    2.5774    2.0780    4.1237 N   0  0  0  0  0  0  0  0  0  0  0  0
    1.7645    2.2963    5.6974 C   0  0  0  0  0  0  0  0  0  0  0  0
    0.8024    2.4822    7.2730 C   0  0  0  0  0  0  0  0  0  0  0  0
   -0.6446    1.8485    7.3837 C   0  0  0  0  0  0  0  0  0  0  0  0
   -1.1114    1.1211    6.4133 C   0  0  0  0  0  0  0  0  0  0  0  0
   -0.1109    1.3228    5.7406 N   0  0  0  0  0  0  0  0  0  0  0  0
    0.8868    1.5071    5.0300 C   0  0  0  0  0  0  0  0  0  0  0  0
   -1.7309    1.7715    8.3313 C   0  0  0  0  0  0  0  0  0  0  0  0
   -1.8106    2.3610    9.5543 C   0  0  0  0  0  0  0  0  0  0  0  0
   -0.6222    2.9465    9.8884 C   0  0  0  0  0  0  0  0  0  0  0  0
    0.6137    2.9721    8.8779 C   0  0  0  0  0  0  0  0  0  0  0  0
    2.5291   -1.0963   -1.7115 H   0  0  0  0  0  0  0  0  0  0  0  0
    3.9823   -0.1845   -1.4312 H   0  0  0  0  0  0  0  0  0  0  0  0
    2.5117    0.6447   -1.9470 H   0  0  0  0  0  0  0  0  0  0  0  0
    1.3363   -0.0548    0.2057 H   0  0  0  0  0  0  0  0  0  0  0  0
    2.6396   -2.1218    0.5950 H   0  0  0  0  0  0  0  0  0  0  0  0
    2.7565   -1.1140    2.0400 H   0  0  0  0  0  0  0  0  0  0  0  0
    4.6107    3.3874    0.9893 H   0  0  0  0  0  0  0  0  0  0  0  0
    8.2694    1.1546    1.3192 H   0  0  0  0  0  0  0  0  0  0  0  0
    7.0027   -0.9619    1.0697 H   0  0  0  0  0  0  0  0  0  0  0  0
    2.6192    2.1295    0.4064 H   0  0  0  0  0  0  0  0  0  0  0  0
    3.5867    2.0928    4.2204 H   0  0  0  0  0  0  0  0  0  0  0  0
   -1.9547    0.6144    6.0877 H   0  0  0  0  0  0  0  0  0  0  0  0
    0.8379    0.8687    4.1801 H   0  0  0  0  0  0  0  0  0  0  0  0
   -2.5951    1.1522    8.0756 H   0  0  0  0  0  0  0  0  0  0  0  0
   -2.7271    2.2587   10.1486 H   0  0  0  0  0  0  0  0  0  0  0  0
   -0.6261    3.3445   10.9202 H   0  0  0  0  0  0  0  0  0  0  0  0
    1.4601    3.3562    9.4771 H   0  0  0  0  0  0  0  0  0  0  0  0
  1 26  1  0  0  0  0
  1 27  1  0  0  0  0
  1 28  1  0  0  0  0
  2  3  1  0  0  0  0
  2 12  1  0  0  0  0
  2  1  1  0  0  0  0
  2 29  1  1  0  0  0
  3  4  1  0  0  0  0
  3 30  1  0  0  0  0
  3 31  1  0  0  0  0
  4  5  1  0  0  0  0
  5  6  2  0  0  0  0
  5 11  1  0  0  0  0
  6  7  1  0  0  0  0
  6 12  1  0  0  0  0
  7  8  2  0  0  0  0
  7 32  1  0  0  0  0
  8  9  1  0  0  0  0
  8 10  1  0  0  0  0
 10 11  2  0  0  0  0
 10 33  1  0  0  0  0
 11 34  1  0  0  0  0
 12 13  1  0  0  0  0
 12 35  1  6  0  0  0
 13 14  2  0  0  0  0
 13 15  1  0  0  0  0
 15 16  1  0  0  0  0
 15 36  1  0  0  0  0
 16 17  2  0  0  0  0
 16 21  1  0  0  0  0
 17 18  1  0  0  0  0
 17 25  1  0  0  0  0
 18 19  2  0  0  0  0
 18 22  1  0  0  0  0
 19 20  1  0  0  0  0
 19 37  1  0  0  0  0
 20 21  2  0  0  0  0
 21 38  1  0  0  0  0
 22 23  2  0  0  0  0
 22 39  1  0  0  0  0
 23 24  1  0  0  0  0
 23 40  1  0  0  0  0
 24 25  2  0  0  0  0
 24 41  1  0  0  0  0
 25 42  1  0  0  0  0
M  END
$$$$
