
 OpenBabel07202414163D

 53 57  0  0  0  0  0  0  0  0999 V2000
   -2.0190   -0.2566   -0.0615 Cl  0  0  0  0  0  0  0  0  0  0  0  0
   -0.3061   -0.1321   -0.0552 C   0  0  0  0  0  0  0  0  0  0  0  0
    0.3009    1.1163   -0.0643 C   0  0  0  0  0  0  0  0  0  0  0  0
    1.6985    1.2297   -0.0375 C   0  0  0  0  0  0  0  0  0  0  0  0
    2.3355    2.4890    0.0163 N   0  0  0  0  0  0  0  0  0  0  0  0
    1.8661    3.6795    0.5968 C   0  0  0  0  0  0  0  0  0  0  0  0
    1.0248    3.6657    1.7135 C   0  0  0  0  0  0  0  0  0  0  0  0
    0.5020    4.8337    2.2470 C   0  0  0  0  0  0  0  0  0  0  0  0
    0.8040    6.0808    1.6539 C   0  0  0  0  0  0  0  0  0  0  0  0
    0.2395    7.2670    2.1787 N   0  0  0  0  0  0  0  0  0  0  0  0
   -0.5943    7.3941    3.2677 C   0  0  0  0  0  0  0  0  0  0  0  0
   -0.8922    8.7238    3.3577 C   0  0  0  0  0  0  0  0  0  0  0  0
   -0.2969    9.4366    2.3840 N   0  0  0  0  0  0  0  0  0  0  0  0
    0.3735    8.5426    1.6729 C   0  0  0  0  0  0  0  0  0  0  0  0
    1.6761    6.1070    0.5564 C   0  0  0  0  0  0  0  0  0  0  0  0
    2.1949    4.9137    0.0341 C   0  0  0  0  0  0  0  0  0  0  0  0
    2.4800    0.0564   -0.0132 C   0  0  0  0  0  0  0  0  0  0  0  0
    1.8742   -1.2101   -0.0289 C   0  0  0  0  0  0  0  0  0  0  0  0
    2.6327   -2.5119    0.0612 C   0  0  0  0  0  0  0  0  0  0  0  0
    4.0237   -2.5371   -0.5225 C   0  0  0  0  0  0  0  0  0  0  0  0
    5.0253   -2.4254    0.1869 O   0  0  0  0  0  0  0  0  0  0  0  0
    4.0422   -2.6983   -1.9013 N   0  0  0  0  0  0  0  0  0  0  0  0
    5.2891   -2.8008   -2.5577 C   0  0  0  0  0  0  0  0  0  0  0  0
    6.1768   -3.8212   -2.2194 C   0  0  0  0  0  0  0  0  0  0  0  0
    7.3649   -4.0087   -2.8325 N   0  0  0  0  0  0  0  0  0  0  0  0
    7.7826   -2.9865   -3.5987 C   0  0  0  0  0  0  0  0  0  0  0  0
    7.0902   -1.7856   -3.7475 C   0  0  0  0  0  0  0  0  0  0  0  0
    7.7230   -0.5863   -4.1044 C   0  0  0  0  0  0  0  0  0  0  0  0
    6.9691    0.5545   -4.3720 C   0  0  0  0  0  0  0  0  0  0  0  0
    5.5851    0.4592   -4.4001 C   0  0  0  0  0  0  0  0  0  0  0  0
    4.9587   -0.6919   -3.9162 C   0  0  0  0  0  0  0  0  0  0  0  0
    5.7322   -1.7739   -3.4278 C   0  0  0  0  0  0  0  0  0  0  0  0
    0.4707   -1.2872   -0.0321 C   0  0  0  0  0  0  0  0  0  0  0  0
   -0.3197    2.0077   -0.1004 H   0  0  0  0  0  0  0  0  0  0  0  0
    3.0774    2.5959   -0.6645 H   0  0  0  0  0  0  0  0  0  0  0  0
    0.7773    2.7272    2.1979 H   0  0  0  0  0  0  0  0  0  0  0  0
   -0.1478    4.7525    3.1078 H   0  0  0  0  0  0  0  0  0  0  0  0
   -0.9065    6.5586    3.8767 H   0  0  0  0  0  0  0  0  0  0  0  0
   -1.5339    9.1989    4.1037 H   0  0  0  0  0  0  0  0  0  0  0  0
    0.9517    8.7843    0.7943 H   0  0  0  0  0  0  0  0  0  0  0  0
    1.9653    7.0325    0.0729 H   0  0  0  0  0  0  0  0  0  0  0  0
    2.8574    4.9693   -0.8270 H   0  0  0  0  0  0  0  0  0  0  0  0
    3.5594    0.1513    0.0698 H   0  0  0  0  0  0  0  0  0  0  0  0
    2.0680   -3.2961   -0.4565 H   0  0  0  0  0  0  0  0  0  0  0  0
    2.7065   -2.8180    1.1131 H   0  0  0  0  0  0  0  0  0  0  0  0
    3.3139   -2.1845   -2.3812 H   0  0  0  0  0  0  0  0  0  0  0  0
    5.9470   -4.5496   -1.4462 H   0  0  0  0  0  0  0  0  0  0  0  0
    8.6936   -3.1681   -4.1633 H   0  0  0  0  0  0  0  0  0  0  0  0
    8.8083   -0.5205   -4.0870 H   0  0  0  0  0  0  0  0  0  0  0  0
    7.4649    1.5005   -4.5756 H   0  0  0  0  0  0  0  0  0  0  0  0
    4.9904    1.3013   -4.7470 H   0  0  0  0  0  0  0  0  0  0  0  0
    3.8721   -0.7253   -3.9016 H   0  0  0  0  0  0  0  0  0  0  0  0
   -0.0220   -2.2549   -0.0009 H   0  0  0  0  0  0  0  0  0  0  0  0
  1  2  1  0  0  0  0
  2  3  2  0  0  0  0
  2 33  1  0  0  0  0
  3  4  1  0  0  0  0
  3 34  1  0  0  0  0
  4  5  1  0  0  0  0
  4 17  2  0  0  0  0
  5  6  1  0  0  0  0
  5 35  1  0  0  0  0
  6  7  2  0  0  0  0
  6 16  1  0  0  0  0
  7  8  1  0  0  0  0
  7 36  1  0  0  0  0
  8  9  2  0  0  0  0
  8 37  1  0  0  0  0
  9 10  1  0  0  0  0
  9 15  1  0  0  0  0
 10 11  1  0  0  0  0
 10 14  1  0  0  0  0
 11 12  2  0  0  0  0
 11 38  1  0  0  0  0
 12 13  1  0  0  0  0
 12 39  1  0  0  0  0
 13 14  2  0  0  0  0
 14 40  1  0  0  0  0
 15 16  2  0  0  0  0
 15 41  1  0  0  0  0
 16 42  1  0  0  0  0
 17 18  1  0  0  0  0
 17 43  1  0  0  0  0
 18 19  1  0  0  0  0
 18 33  2  0  0  0  0
 19 20  1  0  0  0  0
 19 44  1  0  0  0  0
 19 45  1  0  0  0  0
 20 21  2  0  0  0  0
 20 22  1  0  0  0  0
 22 23  1  0  0  0  0
 22 46  1  0  0  0  0
 23 24  2  0  0  0  0
 23 32  1  0  0  0  0
 24 25  1  0  0  0  0
 24 47  1  0  0  0  0
 25 26  2  0  0  0  0
 26 27  1  0  0  0  0
 26 48  1  0  0  0  0
 27 28  2  0  0  0  0
 27 32  1  0  0  0  0
 28 29  1  0  0  0  0
 28 49  1  0  0  0  0
 29 30  2  0  0  0  0
 29 50  1  0  0  0  0
 30 31  1  0  0  0  0
 30 51  1  0  0  0  0
 31 32  2  0  0  0  0
 31 52  1  0  0  0  0
 33 53  1  0  0  0  0
M  END
$$$$
