
 OpenBabel07202414193D

 36 38  0  0  1  0  0  0  0  0999 V2000
    3.1673    1.2125   -0.4234 N   0  0  0  0  0  0  0  0  0  0  0  0
    2.4640   -0.0231   -0.0128 C   0  0  3  0  0  0  0  0  0  0  0  0
    3.0822   -0.4701    1.3385 C   0  0  0  0  0  0  0  0  0  0  0  0
    3.8981   -1.3892    1.3923 O   0  0  0  0  0  0  0  0  0  0  0  0
    2.6812    0.2891    2.4299 N   0  0  0  0  0  0  0  0  0  0  0  0
    3.1422    0.0584    3.7485 C   0  0  0  0  0  0  0  0  0  0  0  0
    4.4853   -0.2215    4.0033 C   0  0  0  0  0  0  0  0  0  0  0  0
    5.0087   -0.3761    5.2396 N   0  0  0  0  0  0  0  0  0  0  0  0
    4.1439   -0.2818    6.2726 C   0  0  0  0  0  0  0  0  0  0  0  0
    2.7747   -0.0432    6.1433 C   0  0  0  0  0  0  0  0  0  0  0  0
    1.9265   -0.0062    7.2661 C   0  0  0  0  0  0  0  0  0  0  0  0
    0.5537    0.1687    7.1144 C   0  0  0  0  0  0  0  0  0  0  0  0
    0.0135    0.3278    5.8451 C   0  0  0  0  0  0  0  0  0  0  0  0
    0.8472    0.3246    4.7255 C   0  0  0  0  0  0  0  0  0  0  0  0
    2.2485    0.1405    4.8442 C   0  0  0  0  0  0  0  0  0  0  0  0
    0.9450    0.1540   -0.0134 C   0  0  0  0  0  0  0  0  0  0  0  0
    0.3316    1.0406   -0.9169 C   0  0  0  0  0  0  0  0  0  0  0  0
   -1.0568    1.2031   -0.9462 C   0  0  0  0  0  0  0  0  0  0  0  0
   -1.8674    0.4739   -0.0770 C   0  0  0  0  0  0  0  0  0  0  0  0
   -3.5715    0.7429   -0.1457 Cl  0  0  0  0  0  0  0  0  0  0  0  0
   -1.2841   -0.4392    0.8044 C   0  0  0  0  0  0  0  0  0  0  0  0
   -2.2155   -1.3697    1.9238 Cl  0  0  0  0  0  0  0  0  0  0  0  0
    0.1077   -0.6151    0.8155 C   0  0  0  0  0  0  0  0  0  0  0  0
    4.1673    1.0022   -0.4657 H   0  0  0  0  0  0  0  0  0  0  0  0
    3.0680    1.9147    0.3087 H   0  0  0  0  0  0  0  0  0  0  0  0
    2.6885   -0.8078   -0.7460 H   0  0  0  0  0  0  0  0  0  0  0  0
    1.8284    0.8235    2.3270 H   0  0  0  0  0  0  0  0  0  0  0  0
    5.2156   -0.2877    3.2021 H   0  0  0  0  0  0  0  0  0  0  0  0
    4.6008   -0.4269    7.2483 H   0  0  0  0  0  0  0  0  0  0  0  0
    2.3305   -0.1513    8.2661 H   0  0  0  0  0  0  0  0  0  0  0  0
   -0.0956    0.1658    7.9867 H   0  0  0  0  0  0  0  0  0  0  0  0
   -1.0618    0.4379    5.7204 H   0  0  0  0  0  0  0  0  0  0  0  0
    0.3708    0.4196    3.7553 H   0  0  0  0  0  0  0  0  0  0  0  0
    0.9371    1.6154   -1.6184 H   0  0  0  0  0  0  0  0  0  0  0  0
   -1.4959    1.9020   -1.6549 H   0  0  0  0  0  0  0  0  0  0  0  0
    0.5304   -1.3609    1.4885 H   0  0  0  0  0  0  0  0  0  0  0  0
  1  2  1  0  0  0  0
  1 24  1  0  0  0  0
  1 25  1  0  0  0  0
  2  3  1  0  0  0  0
  2 16  1  0  0  0  0
  2 26  1  0  0  0  0
  3  4  2  0  0  0  0
  3  5  1  0  0  0  0
  5  6  1  0  0  0  0
  5 27  1  0  0  0  0
  6  7  1  0  0  0  0
  6 15  2  0  0  0  0
  7  8  2  0  0  0  0
  7 28  1  0  0  0  0
  8  9  1  0  0  0  0
  9 10  2  0  0  0  0
  9 29  1  0  0  0  0
 10 11  1  0  0  0  0
 10 15  1  0  0  0  0
 11 12  2  0  0  0  0
 11 30  1  0  0  0  0
 12 13  1  0  0  0  0
 12 31  1  0  0  0  0
 13 14  2  0  0  0  0
 13 32  1  0  0  0  0
 14 15  1  0  0  0  0
 14 33  1  0  0  0  0
 16 17  1  0  0  0  0
 16 23  2  0  0  0  0
 17 18  2  0  0  0  0
 17 34  1  0  0  0  0
 18 19  1  0  0  0  0
 18 35  1  0  0  0  0
 19 20  1  0  0  0  0
 19 21  2  0  0  0  0
 21 22  1  0  0  0  0
 21 23  1  0  0  0  0
 23 36  1  0  0  0  0
M  END
$$$$
