
 OpenBabel07202414153D

 46 49  0  0  1  0  0  0  0  0999 V2000
    0.9364   -0.2552   -0.0033 C   0  0  0  0  0  0  0  0  0  0  0  0
    2.3576   -0.1509   -0.0562 O   0  0  0  0  0  0  0  0  0  0  0  0
    2.9629   -0.4458    1.2107 C   0  0  0  0  0  0  0  0  0  0  0  0
    4.5167   -0.3517    1.1241 C   0  0  2  0  0  0  0  0  0  0  0  0
    4.9773    1.0997    0.7460 C   0  0  0  0  0  0  0  0  0  0  0  0
    6.0183    1.5800    1.1921 O   0  0  0  0  0  0  0  0  0  0  0  0
    4.1448    1.7547   -0.1471 N   0  0  0  0  0  0  0  0  0  0  0  0
    4.1172    3.1384   -0.4832 C   0  0  0  0  0  0  0  0  0  0  0  0
    5.0708    4.0506   -0.0282 C   0  0  0  0  0  0  0  0  0  0  0  0
    4.9892    5.3920   -0.1960 N   0  0  0  0  0  0  0  0  0  0  0  0
    3.9205    5.8597   -0.8709 C   0  0  0  0  0  0  0  0  0  0  0  0
    2.9378    5.0515   -1.4471 C   0  0  0  0  0  0  0  0  0  0  0  0
    1.8897    5.6166   -2.1960 C   0  0  0  0  0  0  0  0  0  0  0  0
    0.9154    4.8109   -2.7840 C   0  0  0  0  0  0  0  0  0  0  0  0
    0.9867    3.4356   -2.6280 C   0  0  0  0  0  0  0  0  0  0  0  0
    2.0286    2.8680   -1.8859 C   0  0  0  0  0  0  0  0  0  0  0  0
    3.0373    3.6541   -1.2661 C   0  0  0  0  0  0  0  0  0  0  0  0
    5.0828   -1.3089    0.0571 C   0  0  0  0  0  0  0  0  0  0  0  0
    4.9335   -2.7550    0.5041 C   0  0  0  0  0  0  0  0  0  0  0  0
    5.6371   -3.0298    1.7141 O   0  0  0  0  0  0  0  0  0  0  0  0
    5.5280   -2.0889    2.7002 C   0  0  0  0  0  0  0  0  0  0  0  0
    5.9661   -2.5004    3.9625 C   0  0  0  0  0  0  0  0  0  0  0  0
    5.9115   -1.6275    5.0533 C   0  0  0  0  0  0  0  0  0  0  0  0
    6.4414   -2.2139    6.5856 Cl  0  0  0  0  0  0  0  0  0  0  0  0
    5.4253   -0.3323    4.8732 C   0  0  0  0  0  0  0  0  0  0  0  0
    5.3225    0.8101    6.1663 Cl  0  0  0  0  0  0  0  0  0  0  0  0
    4.9909    0.0771    3.6077 C   0  0  0  0  0  0  0  0  0  0  0  0
    5.0435   -0.7914    2.4952 C   0  0  0  0  0  0  0  0  0  0  0  0
    0.5210    0.2841   -0.8603 H   0  0  0  0  0  0  0  0  0  0  0  0
    0.5354    0.1934    0.9108 H   0  0  0  0  0  0  0  0  0  0  0  0
    0.6438   -1.3041   -0.0793 H   0  0  0  0  0  0  0  0  0  0  0  0
    2.6405   -1.4469    1.5223 H   0  0  0  0  0  0  0  0  0  0  0  0
    2.5838    0.2702    1.9522 H   0  0  0  0  0  0  0  0  0  0  0  0
    3.3530    1.2049   -0.4702 H   0  0  0  0  0  0  0  0  0  0  0  0
    5.9600    3.7406    0.5113 H   0  0  0  0  0  0  0  0  0  0  0  0
    3.8787    6.9412   -0.9494 H   0  0  0  0  0  0  0  0  0  0  0  0
    1.8221    6.6957   -2.3335 H   0  0  0  0  0  0  0  0  0  0  0  0
    0.1184    5.2537   -3.3740 H   0  0  0  0  0  0  0  0  0  0  0  0
    0.2420    2.7937   -3.0933 H   0  0  0  0  0  0  0  0  0  0  0  0
    2.0540    1.7865   -1.8339 H   0  0  0  0  0  0  0  0  0  0  0  0
    6.1514   -1.1009   -0.0909 H   0  0  0  0  0  0  0  0  0  0  0  0
    4.5969   -1.1615   -0.9148 H   0  0  0  0  0  0  0  0  0  0  0  0
    5.3476   -3.4183   -0.2635 H   0  0  0  0  0  0  0  0  0  0  0  0
    3.8854   -3.0472    0.6309 H   0  0  0  0  0  0  0  0  0  0  0  0
    6.3403   -3.5130    4.0954 H   0  0  0  0  0  0  0  0  0  0  0  0
    4.6209    1.0950    3.4869 H   0  0  0  0  0  0  0  0  0  0  0  0
  1  2  1  0  0  0  0
  1 29  1  0  0  0  0
  1 30  1  0  0  0  0
  1 31  1  0  0  0  0
  2  3  1  0  0  0  0
  3  4  1  0  0  0  0
  3 32  1  0  0  0  0
  3 33  1  0  0  0  0
  4  5  1  6  0  0  0
  4 18  1  0  0  0  0
  4 28  1  0  0  0  0
  5  6  2  0  0  0  0
  5  7  1  0  0  0  0
  7  8  1  0  0  0  0
  7 34  1  0  0  0  0
  8  9  1  0  0  0  0
  8 17  2  0  0  0  0
  9 10  2  0  0  0  0
  9 35  1  0  0  0  0
 10 11  1  0  0  0  0
 11 12  2  0  0  0  0
 11 36  1  0  0  0  0
 12 13  1  0  0  0  0
 12 17  1  0  0  0  0
 13 14  2  0  0  0  0
 13 37  1  0  0  0  0
 14 15  1  0  0  0  0
 14 38  1  0  0  0  0
 15 16  2  0  0  0  0
 15 39  1  0  0  0  0
 16 17  1  0  0  0  0
 16 40  1  0  0  0  0
 18 19  1  0  0  0  0
 18 41  1  0  0  0  0
 18 42  1  0  0  0  0
 19 20  1  0  0  0  0
 19 43  1  0  0  0  0
 19 44  1  0  0  0  0
 20 21  1  0  0  0  0
 21 22  1  0  0  0  0
 21 28  2  0  0  0  0
 22 23  2  0  0  0  0
 22 45  1  0  0  0  0
 23 24  1  0  0  0  0
 23 25  1  0  0  0  0
 25 26  1  0  0  0  0
 25 27  2  0  0  0  0
 27 28  1  0  0  0  0
 27 46  1  0  0  0  0
M  END
$$$$
