
 OpenBabel07202414203D

 48 51  0  0  0  0  0  0  0  0999 V2000
    6.4301   -2.4074   -1.6173 O   0  5  0  0  0  0  0  0  0  0  0  0
    5.8614   -2.6366   -0.5450 N   0  3  0  0  0  0  0  0  0  0  0  0
    4.7633   -3.2003   -0.4125 O   0  0  0  0  0  0  0  0  0  0  0  0
    6.5577   -2.2564    0.6703 C   0  0  0  0  0  0  0  0  0  0  0  0
    7.8703   -2.7250    0.8241 C   0  0  0  0  0  0  0  0  0  0  0  0
    8.5858   -2.3356    1.9455 C   0  0  0  0  0  0  0  0  0  0  0  0
    9.8365   -2.7807    2.1159 F   0  0  0  0  0  0  0  0  0  0  0  0
    8.0249   -1.4966    2.8951 C   0  0  0  0  0  0  0  0  0  0  0  0
    6.7139   -1.0559    2.7294 C   0  0  0  0  0  0  0  0  0  0  0  0
    6.1971   -0.2880    3.6995 F   0  0  0  0  0  0  0  0  0  0  0  0
    5.9362   -1.4151    1.6128 C   0  0  0  0  0  0  0  0  0  0  0  0
    4.5844   -1.0082    1.4819 N   0  0  0  0  0  0  0  0  0  0  0  0
    3.9900    0.1917    1.9317 C   0  0  0  0  0  0  0  0  0  0  0  0
    2.6633    0.1913    2.3905 C   0  0  0  0  0  0  0  0  0  0  0  0
    2.0216    1.3857    2.7634 C   0  0  0  0  0  0  0  0  0  0  0  0
    0.5726    1.3788    3.1978 C   0  0  0  0  0  0  0  0  0  0  0  0
   -0.4614    1.4594    2.0839 C   0  0  0  0  0  0  0  0  0  0  0  0
   -1.6189    1.0878    2.2895 O   0  0  0  0  0  0  0  0  0  0  0  0
   -0.0207    1.9830    0.8869 N   0  0  0  0  0  0  0  0  0  0  0  0
   -0.8620    2.1507   -0.2357 C   0  0  0  0  0  0  0  0  0  0  0  0
   -2.1228    2.7340   -0.1099 C   0  0  0  0  0  0  0  0  0  0  0  0
   -2.9486    2.9904   -1.1498 N   0  0  0  0  0  0  0  0  0  0  0  0
   -2.5041    2.6166   -2.3696 C   0  0  0  0  0  0  0  0  0  0  0  0
   -1.2733    2.0026   -2.6192 C   0  0  0  0  0  0  0  0  0  0  0  0
   -0.8928    1.6021   -3.9116 C   0  0  0  0  0  0  0  0  0  0  0  0
    0.3215    0.9483   -4.1288 C   0  0  0  0  0  0  0  0  0  0  0  0
    1.1666    0.6872   -3.0562 C   0  0  0  0  0  0  0  0  0  0  0  0
    0.8052    1.0938   -1.7730 C   0  0  0  0  0  0  0  0  0  0  0  0
   -0.4163    1.7653   -1.5218 C   0  0  0  0  0  0  0  0  0  0  0  0
    2.7206    2.5959    2.6621 C   0  0  0  0  0  0  0  0  0  0  0  0
    4.0421    2.6005    2.2250 C   0  0  0  0  0  0  0  0  0  0  0  0
    4.8899    4.0915    2.0886 Cl  0  0  0  0  0  0  0  0  0  0  0  0
    4.6739    1.4123    1.8648 C   0  0  0  0  0  0  0  0  0  0  0  0
    8.3350   -3.3807    0.0929 H   0  0  0  0  0  0  0  0  0  0  0  0
    8.5937   -1.1925    3.7673 H   0  0  0  0  0  0  0  0  0  0  0  0
    3.9532   -1.8101    1.5357 H   0  0  0  0  0  0  0  0  0  0  0  0
    2.1186   -0.7493    2.4653 H   0  0  0  0  0  0  0  0  0  0  0  0
    0.3831    2.2180    3.8781 H   0  0  0  0  0  0  0  0  0  0  0  0
    0.3814    0.4608    3.7681 H   0  0  0  0  0  0  0  0  0  0  0  0
    0.9704    1.9245    0.6968 H   0  0  0  0  0  0  0  0  0  0  0  0
   -2.5000    3.0626    0.8550 H   0  0  0  0  0  0  0  0  0  0  0  0
   -3.2041    2.8206   -3.1775 H   0  0  0  0  0  0  0  0  0  0  0  0
   -1.5511    1.7782   -4.7583 H   0  0  0  0  0  0  0  0  0  0  0  0
    0.5964    0.6268   -5.1281 H   0  0  0  0  0  0  0  0  0  0  0  0
    2.0998    0.1549   -3.2140 H   0  0  0  0  0  0  0  0  0  0  0  0
    1.4826    0.8330   -0.9622 H   0  0  0  0  0  0  0  0  0  0  0  0
    2.2319    3.5370    2.9082 H   0  0  0  0  0  0  0  0  0  0  0  0
    5.6998    1.4455    1.5092 H   0  0  0  0  0  0  0  0  0  0  0  0
  1  2  1  0  0  0  0
  2  3  2  0  0  0  0
  2  4  1  0  0  0  0
  4  5  2  0  0  0  0
  4 11  1  0  0  0  0
  5  6  1  0  0  0  0
  5 34  1  0  0  0  0
  6  7  1  0  0  0  0
  6  8  2  0  0  0  0
  8  9  1  0  0  0  0
  8 35  1  0  0  0  0
  9 10  1  0  0  0  0
  9 11  2  0  0  0  0
 11 12  1  0  0  0  0
 12 13  1  0  0  0  0
 12 36  1  0  0  0  0
 13 14  2  0  0  0  0
 13 33  1  0  0  0  0
 14 15  1  0  0  0  0
 14 37  1  0  0  0  0
 15 16  1  0  0  0  0
 15 30  2  0  0  0  0
 16 17  1  0  0  0  0
 16 38  1  0  0  0  0
 16 39  1  0  0  0  0
 17 18  2  0  0  0  0
 17 19  1  0  0  0  0
 19 20  1  0  0  0  0
 19 40  1  0  0  0  0
 20 21  2  0  0  0  0
 20 29  1  0  0  0  0
 21 22  1  0  0  0  0
 21 41  1  0  0  0  0
 22 23  2  0  0  0  0
 23 24  1  0  0  0  0
 23 42  1  0  0  0  0
 24 25  2  0  0  0  0
 24 29  1  0  0  0  0
 25 26  1  0  0  0  0
 25 43  1  0  0  0  0
 26 27  2  0  0  0  0
 26 44  1  0  0  0  0
 27 28  1  0  0  0  0
 27 45  1  0  0  0  0
 28 29  2  0  0  0  0
 28 46  1  0  0  0  0
 30 31  1  0  0  0  0
 30 47  1  0  0  0  0
 31 32  1  0  0  0  0
 31 33  2  0  0  0  0
 33 48  1  0  0  0  0
M  CHG  2   1  -1   2   1
M  END
$$$$
