
 OpenBabel07202414193D

 36 39  0  0  0  0  0  0  0  0999 V2000
    1.1524   -0.1208   -0.1289 O   0  0  0  0  0  0  0  0  0  0  0  0
    2.3732   -0.0724   -0.0341 C   0  0  0  0  0  0  0  0  0  0  0  0
    3.0730   -0.9554    0.7634 N   0  0  0  0  0  0  0  0  0  0  0  0
    2.3638   -1.9614    1.5297 C   0  0  0  0  0  0  0  0  0  0  0  0
    3.3444   -2.8244    2.2681 C   0  0  0  0  0  0  0  0  0  0  0  0
    4.5241   -2.4196    2.6987 N   0  0  0  0  0  0  0  0  0  0  0  0
    5.1528   -3.4431    3.3935 C   0  0  0  0  0  0  0  0  0  0  0  0
    6.4098   -3.3650    4.0222 C   0  0  0  0  0  0  0  0  0  0  0  0
    6.9166   -4.4833    4.6873 C   0  0  0  0  0  0  0  0  0  0  0  0
    8.4517   -4.3864    5.4602 Cl  0  0  0  0  0  0  0  0  0  0  0  0
    6.1994   -5.6765    4.7363 C   0  0  0  0  0  0  0  0  0  0  0  0
    4.9476   -5.7760    4.1215 C   0  0  0  0  0  0  0  0  0  0  0  0
    4.4407   -4.6454    3.4586 C   0  0  0  0  0  0  0  0  0  0  0  0
    2.9427   -4.4536    2.6330 S   0  0  0  0  0  0  0  0  0  0  0  0
    3.1771    0.9341   -0.7845 C   0  0  0  0  0  0  0  0  0  0  0  0
    4.4492    0.5645   -1.2192 C   0  0  0  0  0  0  0  0  0  0  0  0
    5.2854    1.3626   -1.9185 N   0  0  0  0  0  0  0  0  0  0  0  0
    4.8191    2.5917   -2.2228 C   0  0  0  0  0  0  0  0  0  0  0  0
    3.5575    3.0739   -1.8704 C   0  0  0  0  0  0  0  0  0  0  0  0
    3.1518    4.3688   -2.2423 C   0  0  0  0  0  0  0  0  0  0  0  0
    1.8910    4.8474   -1.8956 C   0  0  0  0  0  0  0  0  0  0  0  0
    1.0246    4.0375   -1.1747 C   0  0  0  0  0  0  0  0  0  0  0  0
    1.4201    2.7508   -0.7940 C   0  0  0  0  0  0  0  0  0  0  0  0
    2.6948    2.2269   -1.1306 C   0  0  0  0  0  0  0  0  0  0  0  0
    4.0334   -0.7749    1.0370 H   0  0  0  0  0  0  0  0  0  0  0  0
    1.7443   -2.5439    0.8385 H   0  0  0  0  0  0  0  0  0  0  0  0
    1.7076   -1.4485    2.2406 H   0  0  0  0  0  0  0  0  0  0  0  0
    6.9669   -2.4334    3.9878 H   0  0  0  0  0  0  0  0  0  0  0  0
    6.6083   -6.5392    5.2575 H   0  0  0  0  0  0  0  0  0  0  0  0
    4.3815   -6.7021    4.1605 H   0  0  0  0  0  0  0  0  0  0  0  0
    4.8499   -0.4287   -1.0342 H   0  0  0  0  0  0  0  0  0  0  0  0
    5.5165    3.2043   -2.7890 H   0  0  0  0  0  0  0  0  0  0  0  0
    3.8187    5.0142   -2.8101 H   0  0  0  0  0  0  0  0  0  0  0  0
    1.5856    5.8477   -2.1912 H   0  0  0  0  0  0  0  0  0  0  0  0
    0.0353    4.4003   -0.9058 H   0  0  0  0  0  0  0  0  0  0  0  0
    0.7032    2.1560   -0.2314 H   0  0  0  0  0  0  0  0  0  0  0  0
  1  2  2  0  0  0  0
  2  3  1  0  0  0  0
  2 15  1  0  0  0  0
  3  4  1  0  0  0  0
  3 25  1  0  0  0  0
  4  5  1  0  0  0  0
  4 26  1  0  0  0  0
  4 27  1  0  0  0  0
  5  6  2  0  0  0  0
  5 14  1  0  0  0  0
  6  7  1  0  0  0  0
  7  8  1  0  0  0  0
  7 13  2  0  0  0  0
  8  9  2  0  0  0  0
  8 28  1  0  0  0  0
  9 10  1  0  0  0  0
  9 11  1  0  0  0  0
 11 12  2  0  0  0  0
 11 29  1  0  0  0  0
 12 13  1  0  0  0  0
 12 30  1  0  0  0  0
 13 14  1  0  0  0  0
 15 16  1  0  0  0  0
 15 24  2  0  0  0  0
 16 17  2  0  0  0  0
 16 31  1  0  0  0  0
 17 18  1  0  0  0  0
 18 19  2  0  0  0  0
 18 32  1  0  0  0  0
 19 20  1  0  0  0  0
 19 24  1  0  0  0  0
 20 21  2  0  0  0  0
 20 33  1  0  0  0  0
 21 22  1  0  0  0  0
 21 34  1  0  0  0  0
 22 23  2  0  0  0  0
 22 35  1  0  0  0  0
 23 24  1  0  0  0  0
 23 36  1  0  0  0  0
M  END
$$$$
