
 OpenBabel07202414143D

 50 53  0  0  0  0  0  0  0  0999 V2000
    1.9233    0.2361   -1.3125 C   0  0  0  0  0  0  0  0  0  0  0  0
    2.6626    0.4265   -0.0817 N   0  0  0  0  0  0  0  0  0  0  0  0
    3.4304    1.5738    0.0547 C   0  0  0  0  0  0  0  0  0  0  0  0
    3.4835    2.4228   -0.8231 O   0  0  0  0  0  0  0  0  0  0  0  0
    4.1381    1.5875    1.2449 N   0  0  0  0  0  0  0  0  0  0  0  0
    4.9788    2.6442    1.6949 C   0  0  0  0  0  0  0  0  0  0  0  0
    4.8655    3.9569    1.2298 C   0  0  0  0  0  0  0  0  0  0  0  0
    5.7012    4.9789    1.7168 C   0  0  0  0  0  0  0  0  0  0  0  0
    6.6977    4.7070    2.6563 C   0  0  0  0  0  0  0  0  0  0  0  0
    6.8250    3.3946    3.1268 C   0  0  0  0  0  0  0  0  0  0  0  0
    5.9555    2.3779    2.6652 C   0  0  0  0  0  0  0  0  0  0  0  0
    7.5110    5.7781    3.1498 N   0  0  0  0  0  0  0  0  0  0  0  0
    8.8798    5.9629    2.6405 C   0  0  0  0  0  0  0  0  0  0  0  0
    9.3765    5.1538    1.4734 C   0  0  0  0  0  0  0  0  0  0  0  0
    8.8518    5.1843    0.1351 C   0  0  0  0  0  0  0  0  0  0  0  0
    9.6241    4.4816   -0.7652 C   0  0  0  0  0  0  0  0  0  0  0  0
   10.9795    3.7620   -0.0204 S   0  0  0  0  0  0  0  0  0  0  0  0
   10.5400    4.3989    1.5046 C   0  0  0  0  0  0  0  0  0  0  0  0
    6.9858    6.5959    4.1885 C   0  0  0  0  0  0  0  0  0  0  0  0
    5.8763    6.3787    4.6898 O   0  0  0  0  0  0  0  0  0  0  0  0
    7.8841    7.6678    4.8010 C   0  0  0  0  0  0  0  0  0  0  0  0
    7.4144    9.0467    4.9624 N   0  0  0  0  0  0  0  0  0  0  0  0
    6.2226    9.7090    4.7820 C   0  0  0  0  0  0  0  0  0  0  0  0
    4.9115    9.3551    4.4396 C   0  0  0  0  0  0  0  0  0  0  0  0
    3.9625   10.3877    4.3275 C   0  0  0  0  0  0  0  0  0  0  0  0
    4.2961   11.7230    4.5542 C   0  0  0  0  0  0  0  0  0  0  0  0
    5.5968   12.0648    4.9245 C   0  0  0  0  0  0  0  0  0  0  0  0
    6.5563   11.0444    5.0406 C   0  0  0  0  0  0  0  0  0  0  0  0
    7.8693   11.1350    5.3899 N   0  0  0  0  0  0  0  0  0  0  0  0
    8.3843    9.9182    5.3545 N   0  0  0  0  0  0  0  0  0  0  0  0
    1.2854   -0.6470   -1.2244 H   0  0  0  0  0  0  0  0  0  0  0  0
    2.6324    0.0945   -2.1345 H   0  0  0  0  0  0  0  0  0  0  0  0
    1.3072    1.1162   -1.5225 H   0  0  0  0  0  0  0  0  0  0  0  0
    2.2276    0.0848    0.7639 H   0  0  0  0  0  0  0  0  0  0  0  0
    4.2543    0.6854    1.6840 H   0  0  0  0  0  0  0  0  0  0  0  0
    4.1113    4.2258    0.4956 H   0  0  0  0  0  0  0  0  0  0  0  0
    5.5661    5.9880    1.3387 H   0  0  0  0  0  0  0  0  0  0  0  0
    7.5763    3.1441    3.8703 H   0  0  0  0  0  0  0  0  0  0  0  0
    6.0695    1.3731    3.0666 H   0  0  0  0  0  0  0  0  0  0  0  0
    9.5596    5.8231    3.4911 H   0  0  0  0  0  0  0  0  0  0  0  0
    8.9612    7.0144    2.3351 H   0  0  0  0  0  0  0  0  0  0  0  0
    7.9634    5.7253   -0.1670 H   0  0  0  0  0  0  0  0  0  0  0  0
    9.4668    4.3688   -1.8301 H   0  0  0  0  0  0  0  0  0  0  0  0
   11.1960    4.2228    2.3466 H   0  0  0  0  0  0  0  0  0  0  0  0
    8.8229    7.7731    4.2557 H   0  0  0  0  0  0  0  0  0  0  0  0
    8.1501    7.3296    5.8116 H   0  0  0  0  0  0  0  0  0  0  0  0
    4.6069    8.3282    4.2758 H   0  0  0  0  0  0  0  0  0  0  0  0
    2.9372   10.1403    4.0579 H   0  0  0  0  0  0  0  0  0  0  0  0
    3.5425   12.5015    4.4494 H   0  0  0  0  0  0  0  0  0  0  0  0
    5.8696   13.0979    5.1193 H   0  0  0  0  0  0  0  0  0  0  0  0
  1  2  1  0  0  0  0
  1 31  1  0  0  0  0
  1 32  1  0  0  0  0
  1 33  1  0  0  0  0
  2  3  1  0  0  0  0
  2 34  1  0  0  0  0
  3  4  2  0  0  0  0
  3  5  1  0  0  0  0
  5  6  1  0  0  0  0
  5 35  1  0  0  0  0
  6  7  1  0  0  0  0
  6 11  2  0  0  0  0
  7  8  2  0  0  0  0
  7 36  1  0  0  0  0
  8  9  1  0  0  0  0
  8 37  1  0  0  0  0
  9 10  2  0  0  0  0
  9 12  1  0  0  0  0
 10 11  1  0  0  0  0
 10 38  1  0  0  0  0
 11 39  1  0  0  0  0
 12 13  1  0  0  0  0
 12 19  1  0  0  0  0
 13 14  1  0  0  0  0
 13 40  1  0  0  0  0
 13 41  1  0  0  0  0
 14 15  1  0  0  0  0
 14 18  2  0  0  0  0
 15 16  2  0  0  0  0
 15 42  1  0  0  0  0
 16 17  1  0  0  0  0
 16 43  1  0  0  0  0
 17 18  1  0  0  0  0
 18 44  1  0  0  0  0
 19 20  2  0  0  0  0
 19 21  1  0  0  0  0
 21 22  1  0  0  0  0
 21 45  1  0  0  0  0
 21 46  1  0  0  0  0
 22 23  1  0  0  0  0
 22 30  1  0  0  0  0
 23 24  1  0  0  0  0
 23 28  2  0  0  0  0
 24 25  2  0  0  0  0
 24 47  1  0  0  0  0
 25 26  1  0  0  0  0
 25 48  1  0  0  0  0
 26 27  2  0  0  0  0
 26 49  1  0  0  0  0
 27 28  1  0  0  0  0
 27 50  1  0  0  0  0
 28 29  1  0  0  0  0
 29 30  2  0  0  0  0
M  END
$$$$
