
 OpenBabel07202414163D

 57 59  0  0  1  0  0  0  0  0999 V2000
    2.1981    0.6881   -2.1444 C   0  0  0  0  0  0  0  0  0  0  0  0
    0.7795    0.5768   -1.6682 C   0  0  0  0  0  0  0  0  0  0  0  0
    0.4789    0.3667   -0.3138 C   0  0  0  0  0  0  0  0  0  0  0  0
   -0.8496    0.2541    0.1095 C   0  0  0  0  0  0  0  0  0  0  0  0
   -1.8865    0.3677   -0.8347 C   0  0  0  0  0  0  0  0  0  0  0  0
   -3.5512   -0.0241   -0.3752 S   0  0  0  0  0  0  0  0  0  0  0  0
   -4.3499   -0.1679   -1.5769 O   0  0  0  0  0  0  0  0  0  0  0  0
   -3.4733   -1.1074    0.5857 O   0  0  0  0  0  0  0  0  0  0  0  0
   -4.1688    1.3046    0.4419 N   0  0  0  0  0  0  0  0  0  0  0  0
   -4.2537    2.6734   -0.1553 C   0  0  0  0  0  0  0  0  0  0  0  0
   -4.4854    3.7412    0.9668 C   0  0  0  0  0  0  0  0  0  0  0  0
   -5.4778    3.3371    1.9895 N   0  0  0  0  0  0  0  0  0  0  0  0
   -6.3730    4.1515    2.6739 C   0  0  0  0  0  0  0  0  0  0  0  0
   -7.0172    3.7351    3.6428 O   0  0  0  0  0  0  0  0  0  0  0  0
   -6.6139    5.5629    2.1927 C   0  0  0  0  0  0  0  0  0  0  0  0
   -5.2577    6.6050    2.6518 Cl  0  0  0  0  0  0  0  0  0  0  0  0
   -5.3772    1.9414    2.4360 C   0  0  0  0  0  0  0  0  0  0  0  0
   -5.4178    0.9925    1.2281 C   0  0  1  0  0  0  0  0  0  0  0  0
   -6.7866    1.0963    0.5165 C   0  0  0  0  0  0  0  0  0  0  0  0
   -7.8102    1.4021    1.1311 O   0  0  0  0  0  0  0  0  0  0  0  0
   -6.8393    0.8079   -0.8362 N   0  0  0  0  0  0  0  0  0  0  0  0
   -8.1103    0.7885   -1.5622 C   0  0  0  0  0  0  0  0  0  0  0  0
   -8.7069   -0.6247   -1.5824 C   0  0  0  0  0  0  0  0  0  0  0  0
  -10.0397   -0.6619   -2.3292 C   0  0  0  0  0  0  0  0  0  0  0  0
   -9.9198   -0.0886   -3.7389 C   0  0  0  0  0  0  0  0  0  0  0  0
   -9.3022    1.3073   -3.7296 C   0  0  0  0  0  0  0  0  0  0  0  0
   -7.9612    1.3290   -2.9906 C   0  0  0  0  0  0  0  0  0  0  0  0
   -1.5915    0.5619   -2.1814 C   0  0  0  0  0  0  0  0  0  0  0  0
   -0.2657    0.6681   -2.5954 C   0  0  0  0  0  0  0  0  0  0  0  0
    2.9133    0.5753   -1.3241 H   0  0  0  0  0  0  0  0  0  0  0  0
    2.3608    1.6701   -2.6022 H   0  0  0  0  0  0  0  0  0  0  0  0
    2.4126   -0.0901   -2.8868 H   0  0  0  0  0  0  0  0  0  0  0  0
    1.2817    0.2582    0.4134 H   0  0  0  0  0  0  0  0  0  0  0  0
   -1.0660    0.0390    1.1542 H   0  0  0  0  0  0  0  0  0  0  0  0
   -5.0786    2.7303   -0.8720 H   0  0  0  0  0  0  0  0  0  0  0  0
   -3.3333    2.9191   -0.6917 H   0  0  0  0  0  0  0  0  0  0  0  0
   -4.7607    4.6965    0.5125 H   0  0  0  0  0  0  0  0  0  0  0  0
   -3.5415    3.8946    1.5052 H   0  0  0  0  0  0  0  0  0  0  0  0
   -7.5159    5.9480    2.6817 H   0  0  0  0  0  0  0  0  0  0  0  0
   -6.7765    5.5907    1.1128 H   0  0  0  0  0  0  0  0  0  0  0  0
   -6.1573    1.6803    3.1569 H   0  0  0  0  0  0  0  0  0  0  0  0
   -4.4141    1.8489    2.9570 H   0  0  0  0  0  0  0  0  0  0  0  0
   -5.3655   -0.0254    1.6285 H   0  0  0  0  0  0  0  0  0  0  0  0
   -6.0341    0.3643   -1.2795 H   0  0  0  0  0  0  0  0  0  0  0  0
   -8.8114    1.4471   -1.0330 H   0  0  0  0  0  0  0  0  0  0  0  0
   -8.8529   -0.9879   -0.5584 H   0  0  0  0  0  0  0  0  0  0  0  0
   -8.0022   -1.3173   -2.0617 H   0  0  0  0  0  0  0  0  0  0  0  0
  -10.7869   -0.0883   -1.7667 H   0  0  0  0  0  0  0  0  0  0  0  0
  -10.4048   -1.6937   -2.3819 H   0  0  0  0  0  0  0  0  0  0  0  0
  -10.9106   -0.0520   -4.2064 H   0  0  0  0  0  0  0  0  0  0  0  0
   -9.3027   -0.7557   -4.3529 H   0  0  0  0  0  0  0  0  0  0  0  0
   -9.9968    2.0065   -3.2467 H   0  0  0  0  0  0  0  0  0  0  0  0
   -9.1674    1.6566   -4.7596 H   0  0  0  0  0  0  0  0  0  0  0  0
   -7.5778    2.3561   -2.9664 H   0  0  0  0  0  0  0  0  0  0  0  0
   -7.2272    0.7329   -3.5478 H   0  0  0  0  0  0  0  0  0  0  0  0
   -2.3852    0.5841   -2.9239 H   0  0  0  0  0  0  0  0  0  0  0  0
   -0.0491    0.7905   -3.6548 H   0  0  0  0  0  0  0  0  0  0  0  0
  1  2  1  0  0  0  0
  1 30  1  0  0  0  0
  1 31  1  0  0  0  0
  1 32  1  0  0  0  0
  2  3  1  0  0  0  0
  2 29  2  0  0  0  0
  3  4  2  0  0  0  0
  3 33  1  0  0  0  0
  4  5  1  0  0  0  0
  4 34  1  0  0  0  0
  5  6  1  0  0  0  0
  5 28  2  0  0  0  0
  6  7  2  0  0  0  0
  6  8  2  0  0  0  0
  6  9  1  0  0  0  0
  9 10  1  0  0  0  0
  9 18  1  0  0  0  0
 10 11  1  0  0  0  0
 10 35  1  0  0  0  0
 10 36  1  0  0  0  0
 11 12  1  0  0  0  0
 11 37  1  0  0  0  0
 11 38  1  0  0  0  0
 12 13  1  0  0  0  0
 12 17  1  0  0  0  0
 13 14  2  0  0  0  0
 13 15  1  0  0  0  0
 15 16  1  0  0  0  0
 15 39  1  0  0  0  0
 15 40  1  0  0  0  0
 17 18  1  0  0  0  0
 17 41  1  0  0  0  0
 17 42  1  0  0  0  0
 18 19  1  0  0  0  0
 18 43  1  1  0  0  0
 19 20  2  0  0  0  0
 19 21  1  0  0  0  0
 21 22  1  0  0  0  0
 21 44  1  0  0  0  0
 22 23  1  0  0  0  0
 22 27  1  0  0  0  0
 22 45  1  0  0  0  0
 23 24  1  0  0  0  0
 23 46  1  0  0  0  0
 23 47  1  0  0  0  0
 24 25  1  0  0  0  0
 24 48  1  0  0  0  0
 24 49  1  0  0  0  0
 25 26  1  0  0  0  0
 25 50  1  0  0  0  0
 25 51  1  0  0  0  0
 26 27  1  0  0  0  0
 26 52  1  0  0  0  0
 26 53  1  0  0  0  0
 27 54  1  0  0  0  0
 27 55  1  0  0  0  0
 28 29  1  0  0  0  0
 28 56  1  0  0  0  0
 29 57  1  0  0  0  0
M  END
$$$$
