
 OpenBabel07202414153D

 46 49  0  0  1  0  0  0  0  0999 V2000
    0.9863    2.6904    0.5173 C   0  0  0  0  0  0  0  0  0  0  0  0
    2.3843    2.6950    0.2609 O   0  0  0  0  0  0  0  0  0  0  0  0
    2.9738    1.4104    0.4459 C   0  0  0  0  0  0  0  0  0  0  0  0
    4.5192    1.4767    0.2650 C   0  0  3  0  0  0  0  0  0  0  0  0
    4.9527    2.1768   -1.0685 C   0  0  0  0  0  0  0  0  0  0  0  0
    6.0336    2.7522   -1.1779 O   0  0  0  0  0  0  0  0  0  0  0  0
    4.0724    1.9884   -2.1316 N   0  0  0  0  0  0  0  0  0  0  0  0
    4.0518    2.6393   -3.3938 C   0  0  0  0  0  0  0  0  0  0  0  0
    4.9876    3.5978   -3.7757 C   0  0  0  0  0  0  0  0  0  0  0  0
    4.8790    4.3710   -4.8830 N   0  0  0  0  0  0  0  0  0  0  0  0
    3.8036    4.1575   -5.6700 C   0  0  0  0  0  0  0  0  0  0  0  0
    2.8525    3.1594   -5.4569 C   0  0  0  0  0  0  0  0  0  0  0  0
    1.8124    2.9336   -6.3834 C   0  0  0  0  0  0  0  0  0  0  0  0
    0.8888    1.9149   -6.1791 C   0  0  0  0  0  0  0  0  0  0  0  0
    0.9765    1.1239   -5.0437 C   0  0  0  0  0  0  0  0  0  0  0  0
    1.9953    1.3504   -4.1132 C   0  0  0  0  0  0  0  0  0  0  0  0
    2.9698    2.3703   -4.2898 C   0  0  0  0  0  0  0  0  0  0  0  0
    5.0994    0.0476    0.2286 C   0  0  0  0  0  0  0  0  0  0  0  0
    4.9400   -0.6296    1.5814 C   0  0  0  0  0  0  0  0  0  0  0  0
    5.6290    0.0592    2.6203 O   0  0  0  0  0  0  0  0  0  0  0  0
    5.5401    1.4233    2.6033 C   0  0  0  0  0  0  0  0  0  0  0  0
    5.9666    2.0537    3.7753 C   0  0  0  0  0  0  0  0  0  0  0  0
    5.9153    3.4435    3.8911 C   0  0  0  0  0  0  0  0  0  0  0  0
    6.4151    4.1455    5.3891 Cl  0  0  0  0  0  0  0  0  0  0  0  0
    5.4518    4.2093    2.8200 C   0  0  0  0  0  0  0  0  0  0  0  0
    5.3422    5.9322    2.8930 Cl  0  0  0  0  0  0  0  0  0  0  0  0
    5.0347    3.5770    1.6433 C   0  0  0  0  0  0  0  0  0  0  0  0
    5.0728    2.1757    1.5159 C   0  0  0  0  0  0  0  0  0  0  0  0
    0.6393    3.7264    0.5492 H   0  0  0  0  0  0  0  0  0  0  0  0
    0.7619    2.2186    1.4792 H   0  0  0  0  0  0  0  0  0  0  0  0
    0.4666    2.1672   -0.2898 H   0  0  0  0  0  0  0  0  0  0  0  0
    2.5227    0.7112   -0.2717 H   0  0  0  0  0  0  0  0  0  0  0  0
    2.7083    1.0455    1.4465 H   0  0  0  0  0  0  0  0  0  0  0  0
    3.2132    1.5103   -1.9182 H   0  0  0  0  0  0  0  0  0  0  0  0
    5.8758    3.8106   -3.1910 H   0  0  0  0  0  0  0  0  0  0  0  0
    3.7250    4.8386   -6.5158 H   0  0  0  0  0  0  0  0  0  0  0  0
    1.7337    3.5444   -7.2793 H   0  0  0  0  0  0  0  0  0  0  0  0
    0.1100    1.7272   -6.9167 H   0  0  0  0  0  0  0  0  0  0  0  0
    0.2629    0.3167   -4.8848 H   0  0  0  0  0  0  0  0  0  0  0  0
    2.0285    0.6797   -3.2613 H   0  0  0  0  0  0  0  0  0  0  0  0
    6.1699    0.0892   -0.0138 H   0  0  0  0  0  0  0  0  0  0  0  0
    4.6192   -0.5529   -0.5535 H   0  0  0  0  0  0  0  0  0  0  0  0
    5.3552   -1.6423    1.5356 H   0  0  0  0  0  0  0  0  0  0  0  0
    3.8892   -0.7451    1.8701 H   0  0  0  0  0  0  0  0  0  0  0  0
    6.3227    1.4487    4.6060 H   0  0  0  0  0  0  0  0  0  0  0  0
    4.6625    4.1877    0.8211 H   0  0  0  0  0  0  0  0  0  0  0  0
  1  2  1  0  0  0  0
  1 29  1  0  0  0  0
  1 30  1  0  0  0  0
  1 31  1  0  0  0  0
  2  3  1  0  0  0  0
  3  4  1  0  0  0  0
  3 32  1  0  0  0  0
  3 33  1  0  0  0  0
  4  5  1  0  0  0  0
  4 18  1  0  0  0  0
  4 28  1  0  0  0  0
  5  6  2  0  0  0  0
  5  7  1  0  0  0  0
  7  8  1  0  0  0  0
  7 34  1  0  0  0  0
  8  9  1  0  0  0  0
  8 17  2  0  0  0  0
  9 10  2  0  0  0  0
  9 35  1  0  0  0  0
 10 11  1  0  0  0  0
 11 12  2  0  0  0  0
 11 36  1  0  0  0  0
 12 13  1  0  0  0  0
 12 17  1  0  0  0  0
 13 14  2  0  0  0  0
 13 37  1  0  0  0  0
 14 15  1  0  0  0  0
 14 38  1  0  0  0  0
 15 16  2  0  0  0  0
 15 39  1  0  0  0  0
 16 17  1  0  0  0  0
 16 40  1  0  0  0  0
 18 19  1  0  0  0  0
 18 41  1  0  0  0  0
 18 42  1  0  0  0  0
 19 20  1  0  0  0  0
 19 43  1  0  0  0  0
 19 44  1  0  0  0  0
 20 21  1  0  0  0  0
 21 22  1  0  0  0  0
 21 28  2  0  0  0  0
 22 23  2  0  0  0  0
 22 45  1  0  0  0  0
 23 24  1  0  0  0  0
 23 25  1  0  0  0  0
 25 26  1  0  0  0  0
 25 27  2  0  0  0  0
 27 28  1  0  0  0  0
 27 46  1  0  0  0  0
M  END
$$$$
