
 OpenBabel07202414173D

 39 42  0  0  1  0  0  0  0  0999 V2000
    1.0460    0.1178   -0.3035 Cl  0  0  0  0  0  0  0  0  0  0  0  0
    2.7573   -0.0150   -0.1303 C   0  0  0  0  0  0  0  0  0  0  0  0
    3.5116    1.1668   -0.1573 C   0  0  0  0  0  0  0  0  0  0  0  0
    4.9033    1.1449    0.0115 C   0  0  0  0  0  0  0  0  0  0  0  0
    5.5522   -0.0897    0.1677 C   0  0  0  0  0  0  0  0  0  0  0  0
    4.7945   -1.2754    0.1665 C   0  0  0  0  0  0  0  0  0  0  0  0
    3.4040   -1.2378    0.0235 C   0  0  0  0  0  0  0  0  0  0  0  0
    2.5572   -2.7448    0.0321 Cl  0  0  0  0  0  0  0  0  0  0  0  0
    7.0572   -0.1517    0.3595 C   0  0  3  0  0  0  0  0  0  0  0  0
    7.4260   -0.4419    1.8272 C   0  0  0  0  0  0  0  0  0  0  0  0
    7.6317    0.4555    2.6377 O   0  0  0  0  0  0  0  0  0  0  0  0
    7.4979   -1.8018    2.1074 N   0  0  0  0  0  0  0  0  0  0  0  0
    7.9173   -2.4058    3.3250 C   0  0  0  0  0  0  0  0  0  0  0  0
    8.2797   -1.6686    4.4524 C   0  0  0  0  0  0  0  0  0  0  0  0
    8.8339   -2.1960    5.5702 N   0  0  0  0  0  0  0  0  0  0  0  0
    9.0038   -3.5321    5.5925 C   0  0  0  0  0  0  0  0  0  0  0  0
    8.5869   -4.3927    4.5809 C   0  0  0  0  0  0  0  0  0  0  0  0
    8.7062   -5.7835    4.7135 C   0  0  0  0  0  0  0  0  0  0  0  0
    8.2377   -6.5887    3.6938 C   0  0  0  0  0  0  0  0  0  0  0  0
    7.6942   -6.1069    2.5617 N   0  0  0  0  0  0  0  0  0  0  0  0
    7.6039   -4.7585    2.4522 C   0  0  0  0  0  0  0  0  0  0  0  0
    8.0237   -3.8250    3.4188 C   0  0  0  0  0  0  0  0  0  0  0  0
    7.7408    1.1352   -0.1207 C   0  0  0  0  0  0  0  0  0  0  0  0
    6.9843    2.3683    0.3488 C   0  0  0  0  0  0  0  0  0  0  0  0
    5.6170    2.3398   -0.1495 N   0  0  0  0  0  0  0  0  0  0  0  0
    3.0045    2.1174   -0.3132 H   0  0  0  0  0  0  0  0  0  0  0  0
    5.2820   -2.2407    0.2668 H   0  0  0  0  0  0  0  0  0  0  0  0
    7.4582   -0.9660   -0.2593 H   0  0  0  0  0  0  0  0  0  0  0  0
    7.3495   -2.4228    1.3262 H   0  0  0  0  0  0  0  0  0  0  0  0
    8.1466   -0.5943    4.5190 H   0  0  0  0  0  0  0  0  0  0  0  0
    9.4918   -3.9042    6.4902 H   0  0  0  0  0  0  0  0  0  0  0  0
    9.1323   -6.2357    5.6035 H   0  0  0  0  0  0  0  0  0  0  0  0
    8.2780   -7.6720    3.7689 H   0  0  0  0  0  0  0  0  0  0  0  0
    7.1305   -4.4509    1.5257 H   0  0  0  0  0  0  0  0  0  0  0  0
    7.7705    1.1339   -1.2189 H   0  0  0  0  0  0  0  0  0  0  0  0
    8.7809    1.1779    0.2254 H   0  0  0  0  0  0  0  0  0  0  0  0
    7.4775    3.2633   -0.0466 H   0  0  0  0  0  0  0  0  0  0  0  0
    6.9814    2.4686    1.4383 H   0  0  0  0  0  0  0  0  0  0  0  0
    5.0810    3.1636    0.1165 H   0  0  0  0  0  0  0  0  0  0  0  0
  1  2  1  0  0  0  0
  2  3  1  0  0  0  0
  2  7  2  0  0  0  0
  3  4  2  0  0  0  0
  3 26  1  0  0  0  0
  4  5  1  0  0  0  0
  4 25  1  0  0  0  0
  5  6  2  0  0  0  0
  5  9  1  0  0  0  0
  6  7  1  0  0  0  0
  6 27  1  0  0  0  0
  7  8  1  0  0  0  0
  9 10  1  0  0  0  0
  9 23  1  0  0  0  0
  9 28  1  0  0  0  0
 10 11  2  0  0  0  0
 10 12  1  0  0  0  0
 12 13  1  0  0  0  0
 12 29  1  0  0  0  0
 13 14  1  0  0  0  0
 13 22  2  0  0  0  0
 14 15  2  0  0  0  0
 14 30  1  0  0  0  0
 15 16  1  0  0  0  0
 16 17  2  0  0  0  0
 16 31  1  0  0  0  0
 17 18  1  0  0  0  0
 17 22  1  0  0  0  0
 18 19  2  0  0  0  0
 18 32  1  0  0  0  0
 19 20  1  0  0  0  0
 19 33  1  0  0  0  0
 20 21  2  0  0  0  0
 21 22  1  0  0  0  0
 21 34  1  0  0  0  0
 23 24  1  0  0  0  0
 23 35  1  0  0  0  0
 23 36  1  0  0  0  0
 24 25  1  0  0  0  0
 24 37  1  0  0  0  0
 24 38  1  0  0  0  0
 25 39  1  0  0  0  0
M  END
$$$$
