
 OpenBabel07202414153D

 45 48  0  0  1  0  0  0  0  0999 V2000
    4.2502   -2.3060  -10.4406 C   0  0  0  0  0  0  0  0  0  0  0  0
    5.7245   -2.4342   -9.4651 S   0  0  0  0  0  0  0  0  0  0  0  0
    6.4635   -3.6011   -9.9063 O   0  0  0  0  0  0  0  0  0  0  0  0
    6.3554   -1.1264   -9.4233 O   0  0  0  0  0  0  0  0  0  0  0  0
    5.1229   -2.7774   -7.8273 C   0  0  0  0  0  0  0  0  0  0  0  0
    4.9370   -4.0946   -7.4204 C   0  0  0  0  0  0  0  0  0  0  0  0
    4.5236   -4.3448   -6.1155 C   0  0  0  0  0  0  0  0  0  0  0  0
    4.3163   -3.2895   -5.2056 C   0  0  0  0  0  0  0  0  0  0  0  0
    3.9101   -3.5424   -3.8948 C   0  0  0  0  0  0  0  0  0  0  0  0
    3.7034   -2.5919   -2.9633 N   0  0  0  0  0  0  0  0  0  0  0  0
    3.9225   -1.3110   -3.3417 C   0  0  0  0  0  0  0  0  0  0  0  0
    4.3328   -0.9211   -4.6175 C   0  0  0  0  0  0  0  0  0  0  0  0
    4.5970    0.4336   -4.9569 N   0  0  0  0  0  0  0  0  0  0  0  0
    4.2436    1.5545   -4.2348 C   0  0  0  0  0  0  0  0  0  0  0  0
    3.5887    1.5349   -3.1927 O   0  0  0  0  0  0  0  0  0  0  0  0
    4.6650    2.9040   -4.8238 C   0  0  3  0  0  0  0  0  0  0  0  0
    3.4014    3.6853   -5.1991 C   0  0  0  0  0  0  0  0  0  0  0  0
    2.8669    3.2543   -6.4738 N   0  0  0  0  0  0  0  0  0  0  0  0
    3.6698    3.1283   -7.5794 C   0  0  0  0  0  0  0  0  0  0  0  0
    3.2024    3.0582   -8.7073 O   0  0  0  0  0  0  0  0  0  0  0  0
    5.1336    3.0184   -7.3214 C   0  0  0  0  0  0  0  0  0  0  0  0
    6.0150    2.9947   -8.4078 C   0  0  0  0  0  0  0  0  0  0  0  0
    7.3797    2.7905   -8.1953 C   0  0  0  0  0  0  0  0  0  0  0  0
    7.8599    2.6042   -6.9003 C   0  0  0  0  0  0  0  0  0  0  0  0
    9.5339    2.3052   -6.6446 Cl  0  0  0  0  0  0  0  0  0  0  0  0
    6.9921    2.6465   -5.8069 C   0  0  0  0  0  0  0  0  0  0  0  0
    5.6192    2.8671   -6.0058 C   0  0  0  0  0  0  0  0  0  0  0  0
    4.5332   -1.9431   -5.5904 C   0  0  0  0  0  0  0  0  0  0  0  0
    4.9203   -1.7164   -6.9366 C   0  0  0  0  0  0  0  0  0  0  0  0
    4.5477   -2.1085  -11.4727 H   0  0  0  0  0  0  0  0  0  0  0  0
    3.6439   -1.4795  -10.0655 H   0  0  0  0  0  0  0  0  0  0  0  0
    3.7028   -3.2482  -10.3866 H   0  0  0  0  0  0  0  0  0  0  0  0
    5.1226   -4.9244   -8.0988 H   0  0  0  0  0  0  0  0  0  0  0  0
    4.3689   -5.3779   -5.8018 H   0  0  0  0  0  0  0  0  0  0  0  0
    3.7256   -4.5546   -3.5451 H   0  0  0  0  0  0  0  0  0  0  0  0
    3.7789   -0.6022   -2.5341 H   0  0  0  0  0  0  0  0  0  0  0  0
    5.0552    0.5839   -5.8429 H   0  0  0  0  0  0  0  0  0  0  0  0
    5.1641    3.4424   -4.0061 H   0  0  0  0  0  0  0  0  0  0  0  0
    3.6401    4.7508   -5.3082 H   0  0  0  0  0  0  0  0  0  0  0  0
    2.6071    3.5946   -4.4516 H   0  0  0  0  0  0  0  0  0  0  0  0
    1.8786    3.3686   -6.6722 H   0  0  0  0  0  0  0  0  0  0  0  0
    5.6409    3.1196   -9.4228 H   0  0  0  0  0  0  0  0  0  0  0  0
    8.0572    2.7591   -9.0455 H   0  0  0  0  0  0  0  0  0  0  0  0
    7.3869    2.4952   -4.8036 H   0  0  0  0  0  0  0  0  0  0  0  0
    5.0780   -0.7076   -7.3116 H   0  0  0  0  0  0  0  0  0  0  0  0
  1  2  1  0  0  0  0
  1 30  1  0  0  0  0
  1 31  1  0  0  0  0
  1 32  1  0  0  0  0
  2  3  2  0  0  0  0
  2  4  2  0  0  0  0
  2  5  1  0  0  0  0
  5  6  1  0  0  0  0
  5 29  2  0  0  0  0
  6  7  2  0  0  0  0
  6 33  1  0  0  0  0
  7  8  1  0  0  0  0
  7 34  1  0  0  0  0
  8  9  1  0  0  0  0
  8 28  2  0  0  0  0
  9 10  2  0  0  0  0
  9 35  1  0  0  0  0
 10 11  1  0  0  0  0
 11 12  2  0  0  0  0
 11 36  1  0  0  0  0
 12 13  1  0  0  0  0
 12 28  1  0  0  0  0
 13 14  1  0  0  0  0
 13 37  1  0  0  0  0
 14 15  2  0  0  0  0
 14 16  1  0  0  0  0
 16 17  1  0  0  0  0
 16 27  1  0  0  0  0
 16 38  1  0  0  0  0
 17 18  1  0  0  0  0
 17 39  1  0  0  0  0
 17 40  1  0  0  0  0
 18 19  1  0  0  0  0
 18 41  1  0  0  0  0
 19 20  2  0  0  0  0
 19 21  1  0  0  0  0
 21 22  1  0  0  0  0
 21 27  2  0  0  0  0
 22 23  2  0  0  0  0
 22 42  1  0  0  0  0
 23 24  1  0  0  0  0
 23 43  1  0  0  0  0
 24 25  1  0  0  0  0
 24 26  2  0  0  0  0
 26 27  1  0  0  0  0
 26 44  1  0  0  0  0
 28 29  1  0  0  0  0
 29 45  1  0  0  0  0
M  END
$$$$
