
 OpenBabel07202414123D

 65 68  0  0  1  0  0  0  0  0999 V2000
    1.0221   -0.0755    0.2811 C   0  0  0  0  0  0  0  0  0  0  0  0
    2.5551   -0.0496    0.0662 C   0  0  0  0  0  0  0  0  0  0  0  0
    3.2216    0.4861    1.3488 C   0  0  0  0  0  0  0  0  0  0  0  0
    2.9843   -1.5182   -0.1347 C   0  0  0  0  0  0  0  0  0  0  0  0
    2.9710    0.8457   -1.1127 C   0  0  0  0  0  0  0  0  0  0  0  0
    2.1922    1.9220   -1.5448 C   0  0  0  0  0  0  0  0  0  0  0  0
    2.5606    2.7016   -2.6590 C   0  0  0  0  0  0  0  0  0  0  0  0
    3.7581    2.5008   -3.3649 C   0  0  0  0  0  0  0  0  0  0  0  0
    4.1289    3.3012   -4.5337 N   0  0  0  0  0  0  0  0  0  0  0  0
    5.1118    2.7848   -5.5426 C   0  0  3  0  0  0  0  0  0  0  0  0
    6.5836    3.1872   -5.2271 C   0  0  0  0  0  0  0  0  0  0  0  0
    7.0642    3.1533   -4.0955 O   0  0  0  0  0  0  0  0  0  0  0  0
    7.3522    3.4955   -6.3405 N   0  0  0  0  0  0  0  0  0  0  0  0
    8.7830    3.7180   -6.2278 C   0  0  0  0  0  0  0  0  0  0  0  0
    9.3740    4.3723   -7.4779 C   0  0  0  0  0  0  0  0  0  0  0  0
   10.8690    4.5458   -7.3698 C   0  0  0  0  0  0  0  0  0  0  0  0
   11.4156    5.7149   -6.8263 C   0  0  0  0  0  0  0  0  0  0  0  0
   12.8060    5.8569   -6.6912 C   0  0  0  0  0  0  0  0  0  0  0  0
   13.6528    4.8285   -7.0943 C   0  0  0  0  0  0  0  0  0  0  0  0
   13.1114    3.6746   -7.6405 C   0  0  0  0  0  0  0  0  0  0  0  0
   13.9233    2.6839   -8.0384 F   0  0  0  0  0  0  0  0  0  0  0  0
   11.7344    3.5196   -7.7799 C   0  0  0  0  0  0  0  0  0  0  0  0
    5.0296    1.3263   -6.0157 C   0  0  0  0  0  0  0  0  0  0  0  0
    5.8429    0.2941   -5.5333 C   0  0  0  0  0  0  0  0  0  0  0  0
    5.7653   -0.9623   -6.1069 C   0  0  0  0  0  0  0  0  0  0  0  0
    4.9697   -1.2278   -7.1566 N   0  0  0  0  0  0  0  0  0  0  0  0
    4.1980   -0.2351   -7.6682 N   0  0  0  0  0  0  0  0  0  0  0  0
    4.2244    0.9930   -7.1008 C   0  0  0  0  0  0  0  0  0  0  0  0
    3.6406    4.6499   -4.6076 C   0  0  0  0  0  0  0  0  0  0  0  0
    2.9184    5.1474   -3.7412 O   0  0  0  0  0  0  0  0  0  0  0  0
    3.9782    5.5514   -5.7279 C   0  0  0  0  0  0  0  0  0  0  0  0
    3.3674    6.7849   -5.8985 C   0  0  0  0  0  0  0  0  0  0  0  0
    3.9035    7.3970   -6.9830 O   0  0  0  0  0  0  0  0  0  0  0  0
    4.8280    6.5102   -7.4293 C   0  0  0  0  0  0  0  0  0  0  0  0
    4.9174    5.3954   -6.7354 N   0  0  0  0  0  0  0  0  0  0  0  0
    4.5777    1.5005   -2.8468 C   0  0  0  0  0  0  0  0  0  0  0  0
    4.1891    0.6703   -1.7767 C   0  0  0  0  0  0  0  0  0  0  0  0
    0.7457   -0.7706    1.0834 H   0  0  0  0  0  0  0  0  0  0  0  0
    0.5019   -0.3983   -0.6289 H   0  0  0  0  0  0  0  0  0  0  0  0
    0.6244    0.9029    0.5696 H   0  0  0  0  0  0  0  0  0  0  0  0
    2.9553   -0.1256    2.2181 H   0  0  0  0  0  0  0  0  0  0  0  0
    2.9139    1.5167    1.5599 H   0  0  0  0  0  0  0  0  0  0  0  0
    4.3146    0.4803    1.2635 H   0  0  0  0  0  0  0  0  0  0  0  0
    2.6363   -2.1494    0.6928 H   0  0  0  0  0  0  0  0  0  0  0  0
    4.0762   -1.6373   -0.1712 H   0  0  0  0  0  0  0  0  0  0  0  0
    2.5693   -1.9301   -1.0628 H   0  0  0  0  0  0  0  0  0  0  0  0
    1.2719    2.1939   -1.0342 H   0  0  0  0  0  0  0  0  0  0  0  0
    1.8444    3.4682   -2.9396 H   0  0  0  0  0  0  0  0  0  0  0  0
    4.8660    3.2991   -6.4691 H   0  0  0  0  0  0  0  0  0  0  0  0
    6.9447    3.3884   -7.2618 H   0  0  0  0  0  0  0  0  0  0  0  0
    9.2427    2.7391   -6.0477 H   0  0  0  0  0  0  0  0  0  0  0  0
    8.9728    4.3354   -5.3422 H   0  0  0  0  0  0  0  0  0  0  0  0
    8.9014    5.3475   -7.6534 H   0  0  0  0  0  0  0  0  0  0  0  0
    9.1409    3.7705   -8.3663 H   0  0  0  0  0  0  0  0  0  0  0  0
   10.7695    6.5253   -6.4890 H   0  0  0  0  0  0  0  0  0  0  0  0
   13.2178    6.7676   -6.2706 H   0  0  0  0  0  0  0  0  0  0  0  0
   14.7320    4.9246   -7.0063 H   0  0  0  0  0  0  0  0  0  0  0  0
   11.3514    2.5962   -8.2041 H   0  0  0  0  0  0  0  0  0  0  0  0
    6.5616    0.4427   -4.7345 H   0  0  0  0  0  0  0  0  0  0  0  0
    6.3607   -1.7933   -5.7444 H   0  0  0  0  0  0  0  0  0  0  0  0
    3.5970    1.7211   -7.6050 H   0  0  0  0  0  0  0  0  0  0  0  0
    2.6030    7.3253   -5.3559 H   0  0  0  0  0  0  0  0  0  0  0  0
    5.3954    6.8069   -8.3015 H   0  0  0  0  0  0  0  0  0  0  0  0
    5.5890    1.3709   -3.1976 H   0  0  0  0  0  0  0  0  0  0  0  0
    4.8902   -0.0980   -1.4611 H   0  0  0  0  0  0  0  0  0  0  0  0
  1  2  1  0  0  0  0
  1 38  1  0  0  0  0
  1 39  1  0  0  0  0
  1 40  1  0  0  0  0
  2  3  1  0  0  0  0
  2  4  1  0  0  0  0
  2  5  1  0  0  0  0
  3 41  1  0  0  0  0
  3 42  1  0  0  0  0
  3 43  1  0  0  0  0
  4 44  1  0  0  0  0
  4 45  1  0  0  0  0
  4 46  1  0  0  0  0
  5  6  1  0  0  0  0
  5 37  2  0  0  0  0
  6  7  2  0  0  0  0
  6 47  1  0  0  0  0
  7  8  1  0  0  0  0
  7 48  1  0  0  0  0
  8  9  1  0  0  0  0
  8 36  2  0  0  0  0
  9 10  1  0  0  0  0
  9 29  1  0  0  0  0
 10 11  1  0  0  0  0
 10 23  1  0  0  0  0
 10 49  1  0  0  0  0
 11 12  2  0  0  0  0
 11 13  1  0  0  0  0
 13 14  1  0  0  0  0
 13 50  1  0  0  0  0
 14 15  1  0  0  0  0
 14 51  1  0  0  0  0
 14 52  1  0  0  0  0
 15 16  1  0  0  0  0
 15 53  1  0  0  0  0
 15 54  1  0  0  0  0
 16 17  1  0  0  0  0
 16 22  2  0  0  0  0
 17 18  2  0  0  0  0
 17 55  1  0  0  0  0
 18 19  1  0  0  0  0
 18 56  1  0  0  0  0
 19 20  2  0  0  0  0
 19 57  1  0  0  0  0
 20 21  1  0  0  0  0
 20 22  1  0  0  0  0
 22 58  1  0  0  0  0
 23 24  1  0  0  0  0
 23 28  2  0  0  0  0
 24 25  2  0  0  0  0
 24 59  1  0  0  0  0
 25 26  1  0  0  0  0
 25 60  1  0  0  0  0
 26 27  2  0  0  0  0
 27 28  1  0  0  0  0
 28 61  1  0  0  0  0
 29 30  2  0  0  0  0
 29 31  1  0  0  0  0
 31 32  2  0  0  0  0
 31 35  1  0  0  0  0
 32 33  1  0  0  0  0
 32 62  1  0  0  0  0
 33 34  1  0  0  0  0
 34 35  2  0  0  0  0
 34 63  1  0  0  0  0
 36 37  1  0  0  0  0
 36 64  1  0  0  0  0
 37 65  1  0  0  0  0
M  END
$$$$
