
 OpenBabel07202414133D

 66 69  0  0  1  0  0  0  0  0999 V2000
    4.3857   -1.5979   -0.6621 C   0  0  0  0  0  0  0  0  0  0  0  0
    4.3875   -0.2950   -1.3028 N   0  0  0  0  0  0  0  0  0  0  0  0
    3.2201    0.5707   -1.0554 C   0  0  1  0  0  0  0  0  0  0  0  0
    3.5498    1.9194   -0.4149 C   0  0  0  0  0  0  0  0  0  0  0  0
    2.5320    2.8923   -1.0036 C   0  0  0  0  0  0  0  0  0  0  0  0
    2.2136    2.3413   -2.3149 N   0  0  0  0  0  0  0  0  0  0  0  0
    1.8085    3.0684   -3.4092 C   0  0  0  0  0  0  0  0  0  0  0  0
    1.5353    4.4410   -3.3353 C   0  0  0  0  0  0  0  0  0  0  0  0
    1.1940    5.1832   -4.4714 C   0  0  0  0  0  0  0  0  0  0  0  0
    0.9039    6.8751   -4.3287 Cl  0  0  0  0  0  0  0  0  0  0  0  0
    1.1068    4.5787   -5.7209 C   0  0  0  0  0  0  0  0  0  0  0  0
    1.3467    3.2095   -5.8360 C   0  0  0  0  0  0  0  0  0  0  0  0
    1.3314    2.5305   -7.1849 C   0  0  0  0  0  0  0  0  0  0  0  0
    0.3948    1.3410   -7.2948 C   0  0  0  0  0  0  0  0  0  0  0  0
    0.7595    0.3023   -7.8416 O   0  0  0  0  0  0  0  0  0  0  0  0
   -0.8924    1.5761   -6.8460 N   0  0  0  0  0  0  0  0  0  0  0  0
   -1.9188    0.6034   -6.8842 C   0  0  0  0  0  0  0  0  0  0  0  0
   -1.6529   -0.7398   -6.6004 C   0  0  0  0  0  0  0  0  0  0  0  0
   -2.5853   -1.7164   -6.5767 N   0  0  0  0  0  0  0  0  0  0  0  0
   -3.8454   -1.3490   -6.8892 C   0  0  0  0  0  0  0  0  0  0  0  0
   -4.2342   -0.0439   -7.2143 C   0  0  0  0  0  0  0  0  0  0  0  0
   -5.5600    0.2524   -7.5753 C   0  0  0  0  0  0  0  0  0  0  0  0
   -5.9217    1.5492   -7.9418 C   0  0  0  0  0  0  0  0  0  0  0  0
   -4.9674    2.5588   -7.9440 C   0  0  0  0  0  0  0  0  0  0  0  0
   -3.6505    2.2759   -7.5754 C   0  0  0  0  0  0  0  0  0  0  0  0
   -3.2495    0.9673   -7.1996 C   0  0  0  0  0  0  0  0  0  0  0  0
    1.6811    2.4782   -4.6809 C   0  0  0  0  0  0  0  0  0  0  0  0
    2.4130    0.8932   -2.3295 C   0  0  0  0  0  0  0  0  0  0  0  0
    5.3879   -0.0155   -2.2231 C   0  0  0  0  0  0  0  0  0  0  0  0
    6.2431   -0.8316   -2.5405 O   0  0  0  0  0  0  0  0  0  0  0  0
    5.3247    1.2442   -2.7336 O   0  0  0  0  0  0  0  0  0  0  0  0
    6.3247    1.7209   -3.6686 C   0  0  0  0  0  0  0  0  0  0  0  0
    6.2178    0.9849   -5.0088 C   0  0  0  0  0  0  0  0  0  0  0  0
    5.9964    3.2051   -3.9013 C   0  0  0  0  0  0  0  0  0  0  0  0
    7.7379    1.6368   -3.0760 C   0  0  0  0  0  0  0  0  0  0  0  0
    5.2624   -2.1946   -0.9289 H   0  0  0  0  0  0  0  0  0  0  0  0
    3.4872   -2.1401   -0.9702 H   0  0  0  0  0  0  0  0  0  0  0  0
    4.3784   -1.4554    0.4220 H   0  0  0  0  0  0  0  0  0  0  0  0
    2.5538    0.0304   -0.3679 H   0  0  0  0  0  0  0  0  0  0  0  0
    4.5659    2.2559   -0.6451 H   0  0  0  0  0  0  0  0  0  0  0  0
    3.4775    1.8785    0.6779 H   0  0  0  0  0  0  0  0  0  0  0  0
    2.9712    3.8942   -1.0411 H   0  0  0  0  0  0  0  0  0  0  0  0
    1.6257    2.9257   -0.3879 H   0  0  0  0  0  0  0  0  0  0  0  0
    1.5949    4.9622   -2.3860 H   0  0  0  0  0  0  0  0  0  0  0  0
    0.8728    5.1773   -6.5964 H   0  0  0  0  0  0  0  0  0  0  0  0
    2.3497    2.1772   -7.3939 H   0  0  0  0  0  0  0  0  0  0  0  0
    1.0685    3.2383   -7.9791 H   0  0  0  0  0  0  0  0  0  0  0  0
   -1.1620    2.5387   -6.6910 H   0  0  0  0  0  0  0  0  0  0  0  0
   -0.6538   -1.0748   -6.3346 H   0  0  0  0  0  0  0  0  0  0  0  0
   -4.5627   -2.1640   -6.8857 H   0  0  0  0  0  0  0  0  0  0  0  0
   -6.3157   -0.5287   -7.5939 H   0  0  0  0  0  0  0  0  0  0  0  0
   -6.9452    1.7652   -8.2385 H   0  0  0  0  0  0  0  0  0  0  0  0
   -5.2397    3.5642   -8.2506 H   0  0  0  0  0  0  0  0  0  0  0  0
   -2.9339    3.0897   -7.6240 H   0  0  0  0  0  0  0  0  0  0  0  0
    1.8792    1.4164   -4.8065 H   0  0  0  0  0  0  0  0  0  0  0  0
    2.9353    0.5439   -3.2247 H   0  0  0  0  0  0  0  0  0  0  0  0
    1.4412    0.3856   -2.2916 H   0  0  0  0  0  0  0  0  0  0  0  0
    5.2055    1.0714   -5.4206 H   0  0  0  0  0  0  0  0  0  0  0  0
    6.4222   -0.0849   -4.9087 H   0  0  0  0  0  0  0  0  0  0  0  0
    6.9235    1.3907   -5.7423 H   0  0  0  0  0  0  0  0  0  0  0  0
    4.9948    3.3265   -4.3284 H   0  0  0  0  0  0  0  0  0  0  0  0
    6.7174    3.6757   -4.5793 H   0  0  0  0  0  0  0  0  0  0  0  0
    6.0005    3.7590   -2.9554 H   0  0  0  0  0  0  0  0  0  0  0  0
    8.0677    0.6048   -2.9290 H   0  0  0  0  0  0  0  0  0  0  0  0
    7.7731    2.1202   -2.0932 H   0  0  0  0  0  0  0  0  0  0  0  0
    8.4742    2.1174   -3.7290 H   0  0  0  0  0  0  0  0  0  0  0  0
  1  2  1  0  0  0  0
  1 36  1  0  0  0  0
  1 37  1  0  0  0  0
  1 38  1  0  0  0  0
  2 29  1  0  0  0  0
  3  4  1  0  0  0  0
  3 28  1  0  0  0  0
  3  2  1  0  0  0  0
  3 39  1  1  0  0  0
  4  5  1  0  0  0  0
  4 40  1  0  0  0  0
  4 41  1  0  0  0  0
  5  6  1  0  0  0  0
  5 42  1  0  0  0  0
  5 43  1  0  0  0  0
  6  7  1  0  0  0  0
  6 28  1  0  0  0  0
  7  8  1  0  0  0  0
  7 27  2  0  0  0  0
  8  9  2  0  0  0  0
  8 44  1  0  0  0  0
  9 10  1  0  0  0  0
  9 11  1  0  0  0  0
 11 12  2  0  0  0  0
 11 45  1  0  0  0  0
 12 13  1  0  0  0  0
 12 27  1  0  0  0  0
 13 14  1  0  0  0  0
 13 46  1  0  0  0  0
 13 47  1  0  0  0  0
 14 15  2  0  0  0  0
 14 16  1  0  0  0  0
 16 17  1  0  0  0  0
 16 48  1  0  0  0  0
 17 18  1  0  0  0  0
 17 26  2  0  0  0  0
 18 19  2  0  0  0  0
 18 49  1  0  0  0  0
 19 20  1  0  0  0  0
 20 21  2  0  0  0  0
 20 50  1  0  0  0  0
 21 22  1  0  0  0  0
 21 26  1  0  0  0  0
 22 23  2  0  0  0  0
 22 51  1  0  0  0  0
 23 24  1  0  0  0  0
 23 52  1  0  0  0  0
 24 25  2  0  0  0  0
 24 53  1  0  0  0  0
 25 26  1  0  0  0  0
 25 54  1  0  0  0  0
 27 55  1  0  0  0  0
 28 56  1  0  0  0  0
 28 57  1  0  0  0  0
 29 30  2  0  0  0  0
 29 31  1  0  0  0  0
 31 32  1  0  0  0  0
 32 33  1  0  0  0  0
 32 34  1  0  0  0  0
 32 35  1  0  0  0  0
 33 58  1  0  0  0  0
 33 59  1  0  0  0  0
 33 60  1  0  0  0  0
 34 61  1  0  0  0  0
 34 62  1  0  0  0  0
 34 63  1  0  0  0  0
 35 64  1  0  0  0  0
 35 65  1  0  0  0  0
 35 66  1  0  0  0  0
M  END
$$$$
