
 OpenBabel07202414163D

 42 43  0  0  0  0  0  0  0  0999 V2000
   -5.4720    4.8550   -4.4934 C   0  0  0  0  0  0  0  0  0  0  0  0
   -4.1235    5.5199   -4.5222 C   0  0  0  0  0  0  0  0  0  0  0  0
   -3.7536    6.1976   -5.6977 C   0  0  0  0  0  0  0  0  0  0  0  0
   -2.5350    6.8525   -5.7513 C   0  0  0  0  0  0  0  0  0  0  0  0
   -1.6773    6.9047   -4.7194 N   0  0  0  0  0  0  0  0  0  0  0  0
   -2.0449    6.2470   -3.5907 C   0  0  0  0  0  0  0  0  0  0  0  0
   -3.2329    5.5267   -3.4317 C   0  0  0  0  0  0  0  0  0  0  0  0
   -3.5604    4.8328   -2.2392 N   0  0  0  0  0  0  0  0  0  0  0  0
   -2.7010    4.5749   -1.1816 C   0  0  0  0  0  0  0  0  0  0  0  0
   -1.4971    4.8345   -1.1832 O   0  0  0  0  0  0  0  0  0  0  0  0
   -3.2863    3.8946    0.0484 C   0  0  0  0  0  0  0  0  0  0  0  0
   -4.7782    3.6662    0.0835 C   0  0  0  0  0  0  0  0  0  0  0  0
   -5.6684    4.7515    0.1070 C   0  0  0  0  0  0  0  0  0  0  0  0
   -7.0558    4.5450    0.0847 C   0  0  0  0  0  0  0  0  0  0  0  0
   -7.5470    3.2326    0.0778 C   0  0  0  0  0  0  0  0  0  0  0  0
   -6.6670    2.1531    0.0972 C   0  0  0  0  0  0  0  0  0  0  0  0
   -5.2906    2.3622    0.0988 C   0  0  0  0  0  0  0  0  0  0  0  0
   -7.2872    0.5489    0.1164 Cl  0  0  0  0  0  0  0  0  0  0  0  0
   -8.0085    5.7153    0.1034 C   0  0  0  0  0  0  0  0  0  0  0  0
   -7.7725    6.6247   -1.0258 N   0  0  0  0  0  0  0  0  0  0  0  0
   -8.7689    7.9779   -1.1090 S   0  0  0  0  0  0  0  0  0  0  0  0
   -8.4459    8.6264   -2.3598 O   0  0  0  0  0  0  0  0  0  0  0  0
  -10.1142    7.5356   -0.8178 O   0  0  0  0  0  0  0  0  0  0  0  0
   -8.1760    8.9813    0.2331 C   0  0  0  0  0  0  0  0  0  0  0  0
   -5.8656    4.7160   -5.5072 H   0  0  0  0  0  0  0  0  0  0  0  0
   -6.1837    5.4735   -3.9377 H   0  0  0  0  0  0  0  0  0  0  0  0
   -5.4183    3.8601   -4.0426 H   0  0  0  0  0  0  0  0  0  0  0  0
   -4.4013    6.2139   -6.5684 H   0  0  0  0  0  0  0  0  0  0  0  0
   -2.2117    7.3689   -6.6498 H   0  0  0  0  0  0  0  0  0  0  0  0
   -1.3204    6.3557   -2.7912 H   0  0  0  0  0  0  0  0  0  0  0  0
   -4.4822    4.4211   -2.1969 H   0  0  0  0  0  0  0  0  0  0  0  0
   -3.0139    4.5027    0.9215 H   0  0  0  0  0  0  0  0  0  0  0  0
   -2.7635    2.9367    0.1553 H   0  0  0  0  0  0  0  0  0  0  0  0
   -5.2784    5.7706    0.1244 H   0  0  0  0  0  0  0  0  0  0  0  0
   -8.6195    3.0486    0.0692 H   0  0  0  0  0  0  0  0  0  0  0  0
   -4.6184    1.5060    0.1174 H   0  0  0  0  0  0  0  0  0  0  0  0
   -7.8657    6.2436    1.0512 H   0  0  0  0  0  0  0  0  0  0  0  0
   -9.0387    5.3471    0.0651 H   0  0  0  0  0  0  0  0  0  0  0  0
   -7.7638    6.1631   -1.9370 H   0  0  0  0  0  0  0  0  0  0  0  0
   -7.1161    9.1938    0.0828 H   0  0  0  0  0  0  0  0  0  0  0  0
   -8.3404    8.4536    1.1769 H   0  0  0  0  0  0  0  0  0  0  0  0
   -8.7491    9.9102    0.2395 H   0  0  0  0  0  0  0  0  0  0  0  0
  1  2  1  0  0  0  0
  1 25  1  0  0  0  0
  1 26  1  0  0  0  0
  1 27  1  0  0  0  0
  2  3  1  0  0  0  0
  2  7  2  0  0  0  0
  3  4  2  0  0  0  0
  3 28  1  0  0  0  0
  4  5  1  0  0  0  0
  4 29  1  0  0  0  0
  5  6  2  0  0  0  0
  6  7  1  0  0  0  0
  6 30  1  0  0  0  0
  7  8  1  0  0  0  0
  8  9  1  0  0  0  0
  8 31  1  0  0  0  0
  9 10  2  0  0  0  0
  9 11  1  0  0  0  0
 11 12  1  0  0  0  0
 11 32  1  0  0  0  0
 11 33  1  0  0  0  0
 12 13  1  0  0  0  0
 12 17  2  0  0  0  0
 13 14  2  0  0  0  0
 13 34  1  0  0  0  0
 14 15  1  0  0  0  0
 14 19  1  0  0  0  0
 15 16  2  0  0  0  0
 15 35  1  0  0  0  0
 16 17  1  0  0  0  0
 16 18  1  0  0  0  0
 17 36  1  0  0  0  0
 19 20  1  0  0  0  0
 19 37  1  0  0  0  0
 19 38  1  0  0  0  0
 20 21  1  0  0  0  0
 20 39  1  0  0  0  0
 21 22  2  0  0  0  0
 21 23  2  0  0  0  0
 21 24  1  0  0  0  0
 24 40  1  0  0  0  0
 24 41  1  0  0  0  0
 24 42  1  0  0  0  0
M  END
$$$$
