
 OpenBabel07202414133D

 52 55  0  0  0  0  0  0  0  0999 V2000
    7.9155    3.2304    1.1169 C   0  0  0  0  0  0  0  0  0  0  0  0
    6.4622    2.8429    1.0557 C   0  0  0  0  0  0  0  0  0  0  0  0
    6.1238    1.6259    0.4458 C   0  0  0  0  0  0  0  0  0  0  0  0
    4.8042    1.1627    0.4135 C   0  0  0  0  0  0  0  0  0  0  0  0
    4.4679   -0.0905   -0.1516 N   0  0  0  0  0  0  0  0  0  0  0  0
    5.2456   -1.2674   -0.0856 C   0  0  0  0  0  0  0  0  0  0  0  0
    5.1543   -2.2387   -1.0852 C   0  0  0  0  0  0  0  0  0  0  0  0
    5.9183   -3.4047   -1.0002 C   0  0  0  0  0  0  0  0  0  0  0  0
    5.8188   -4.5808   -2.2542 Cl  0  0  0  0  0  0  0  0  0  0  0  0
    6.7718   -3.6284    0.0816 C   0  0  0  0  0  0  0  0  0  0  0  0
    6.8527   -2.6867    1.1098 C   0  0  0  0  0  0  0  0  0  0  0  0
    7.8062   -2.8679    2.2663 C   0  0  0  0  0  0  0  0  0  0  0  0
    7.1743   -2.7613    3.6435 C   0  0  0  0  0  0  0  0  0  0  0  0
    7.7221   -2.1220    4.5388 O   0  0  0  0  0  0  0  0  0  0  0  0
    6.0339   -3.5241    3.8125 N   0  0  0  0  0  0  0  0  0  0  0  0
    5.3092   -3.5788    5.0282 C   0  0  0  0  0  0  0  0  0  0  0  0
    5.1163   -2.4355    5.8060 C   0  0  0  0  0  0  0  0  0  0  0  0
    4.3996   -2.4037    6.9533 N   0  0  0  0  0  0  0  0  0  0  0  0
    3.8829   -3.5763    7.3672 C   0  0  0  0  0  0  0  0  0  0  0  0
    4.0264   -4.7938    6.6899 C   0  0  0  0  0  0  0  0  0  0  0  0
    3.4955   -5.9844    7.2083 C   0  0  0  0  0  0  0  0  0  0  0  0
    3.6872   -7.1975    6.5504 C   0  0  0  0  0  0  0  0  0  0  0  0
    4.3991   -7.2276    5.3558 C   0  0  0  0  0  0  0  0  0  0  0  0
    4.9187   -6.0448    4.8237 C   0  0  0  0  0  0  0  0  0  0  0  0
    4.7466   -4.7989    5.4749 C   0  0  0  0  0  0  0  0  0  0  0  0
    6.0721   -1.5251    1.0207 C   0  0  0  0  0  0  0  0  0  0  0  0
    3.7939    1.9803    0.9182 C   0  0  0  0  0  0  0  0  0  0  0  0
    4.0921    3.2114    1.5329 C   0  0  0  0  0  0  0  0  0  0  0  0
    2.9629    4.0133    2.1222 C   0  0  0  0  0  0  0  0  0  0  0  0
    5.4361    3.6317    1.6070 C   0  0  0  0  0  0  0  0  0  0  0  0
    5.8722    5.2772    2.4732 Br  0  0  0  0  0  0  0  0  0  0  0  0
    8.5500    2.4869    0.6210 H   0  0  0  0  0  0  0  0  0  0  0  0
    8.2489    3.2925    2.1580 H   0  0  0  0  0  0  0  0  0  0  0  0
    8.0834    4.1862    0.6122 H   0  0  0  0  0  0  0  0  0  0  0  0
    6.9102    1.0178    0.0030 H   0  0  0  0  0  0  0  0  0  0  0  0
    3.9813    0.0313   -1.0362 H   0  0  0  0  0  0  0  0  0  0  0  0
    4.5043   -2.0857   -1.9418 H   0  0  0  0  0  0  0  0  0  0  0  0
    7.3753   -4.5327    0.1129 H   0  0  0  0  0  0  0  0  0  0  0  0
    8.5755   -2.0892    2.1894 H   0  0  0  0  0  0  0  0  0  0  0  0
    8.3184   -3.8350    2.2061 H   0  0  0  0  0  0  0  0  0  0  0  0
    5.8410   -4.2339    3.1195 H   0  0  0  0  0  0  0  0  0  0  0  0
    5.5057   -1.4674    5.5006 H   0  0  0  0  0  0  0  0  0  0  0  0
    3.3323   -3.5175    8.3029 H   0  0  0  0  0  0  0  0  0  0  0  0
    2.9461   -5.9836    8.1490 H   0  0  0  0  0  0  0  0  0  0  0  0
    3.2960   -8.1197    6.9707 H   0  0  0  0  0  0  0  0  0  0  0  0
    4.5743   -8.1720    4.8478 H   0  0  0  0  0  0  0  0  0  0  0  0
    5.4971   -6.1252    3.9084 H   0  0  0  0  0  0  0  0  0  0  0  0
    6.1151   -0.7964    1.8306 H   0  0  0  0  0  0  0  0  0  0  0  0
    2.7645    1.6312    0.8789 H   0  0  0  0  0  0  0  0  0  0  0  0
    1.9941    3.5341    1.9442 H   0  0  0  0  0  0  0  0  0  0  0  0
    2.9187    5.0084    1.6686 H   0  0  0  0  0  0  0  0  0  0  0  0
    3.0854    4.1038    3.2065 H   0  0  0  0  0  0  0  0  0  0  0  0
  1  2  1  0  0  0  0
  1 32  1  0  0  0  0
  1 33  1  0  0  0  0
  1 34  1  0  0  0  0
  2  3  2  0  0  0  0
  2 30  1  0  0  0  0
  3  4  1  0  0  0  0
  3 35  1  0  0  0  0
  4  5  1  0  0  0  0
  4 27  2  0  0  0  0
  5  6  1  0  0  0  0
  5 36  1  0  0  0  0
  6  7  2  0  0  0  0
  6 26  1  0  0  0  0
  7  8  1  0  0  0  0
  7 37  1  0  0  0  0
  8  9  1  0  0  0  0
  8 10  2  0  0  0  0
 10 11  1  0  0  0  0
 10 38  1  0  0  0  0
 11 12  1  0  0  0  0
 11 26  2  0  0  0  0
 12 13  1  0  0  0  0
 12 39  1  0  0  0  0
 12 40  1  0  0  0  0
 13 14  2  0  0  0  0
 13 15  1  0  0  0  0
 15 16  1  0  0  0  0
 15 41  1  0  0  0  0
 16 17  2  0  0  0  0
 16 25  1  0  0  0  0
 17 18  1  0  0  0  0
 17 42  1  0  0  0  0
 18 19  2  0  0  0  0
 19 20  1  0  0  0  0
 19 43  1  0  0  0  0
 20 21  2  0  0  0  0
 20 25  1  0  0  0  0
 21 22  1  0  0  0  0
 21 44  1  0  0  0  0
 22 23  2  0  0  0  0
 22 45  1  0  0  0  0
 23 24  1  0  0  0  0
 23 46  1  0  0  0  0
 24 25  2  0  0  0  0
 24 47  1  0  0  0  0
 26 48  1  0  0  0  0
 27 28  1  0  0  0  0
 27 49  1  0  0  0  0
 28 29  1  0  0  0  0
 28 30  2  0  0  0  0
 29 50  1  0  0  0  0
 29 51  1  0  0  0  0
 29 52  1  0  0  0  0
 30 31  1  0  0  0  0
M  END
$$$$
