
 OpenBabel07202414153D

 48 51  0  0  0  0  0  0  0  0999 V2000
    5.4729   -1.4685    0.3751 C   0  0  0  0  0  0  0  0  0  0  0  0
    5.1382   -0.4462    1.3086 O   0  0  0  0  0  0  0  0  0  0  0  0
    5.0796    0.8042    0.7297 C   0  0  0  0  0  0  0  0  0  0  0  0
    4.6605    1.8438    1.5480 C   0  0  0  0  0  0  0  0  0  0  0  0
    4.5369    3.1119    0.9943 C   0  0  0  0  0  0  0  0  0  0  0  0
    4.8601    3.2945   -0.3472 C   0  0  0  0  0  0  0  0  0  0  0  0
    5.3503    2.2110   -1.0697 C   0  0  0  0  0  0  0  0  0  0  0  0
    5.4284    0.9625   -0.5641 N   0  0  0  0  0  0  0  0  0  0  0  0
    5.7525    2.3102   -2.3868 O   0  0  0  0  0  0  0  0  0  0  0  0
    6.5117    3.3884   -2.7843 C   0  0  0  0  0  0  0  0  0  0  0  0
    7.3104    4.1589   -1.9296 C   0  0  0  0  0  0  0  0  0  0  0  0
    7.9837    5.2990   -2.3906 C   0  0  0  0  0  0  0  0  0  0  0  0
    7.9576    5.5695   -3.7639 C   0  0  0  0  0  0  0  0  0  0  0  0
    7.2141    4.7563   -4.6319 C   0  0  0  0  0  0  0  0  0  0  0  0
    6.4838    3.6742   -4.1459 C   0  0  0  0  0  0  0  0  0  0  0  0
    7.1755    5.1117   -6.3155 Cl  0  0  0  0  0  0  0  0  0  0  0  0
    8.6819    6.1721   -1.5201 N   0  0  0  0  0  0  0  0  0  0  0  0
    8.4861    6.2617   -0.1491 C   0  0  0  0  0  0  0  0  0  0  0  0
    7.6080    5.6558    0.4869 O   0  0  0  0  0  0  0  0  0  0  0  0
    9.4213    7.2119    0.6074 C   0  0  0  0  0  0  0  0  0  0  0  0
   10.7680    6.5607    0.8409 C   0  0  0  0  0  0  0  0  0  0  0  0
   10.8783    5.4783    1.7137 C   0  0  0  0  0  0  0  0  0  0  0  0
   11.9097    4.6100    1.7018 N   0  0  0  0  0  0  0  0  0  0  0  0
   12.7870    4.7346    0.6784 C   0  0  0  0  0  0  0  0  0  0  0  0
   12.7358    5.7491   -0.2819 C   0  0  0  0  0  0  0  0  0  0  0  0
   11.8124    6.7808   -0.0702 C   0  0  0  0  0  0  0  0  0  0  0  0
   11.8843    7.9337   -0.8640 C   0  0  0  0  0  0  0  0  0  0  0  0
   12.5443    7.8971   -2.0820 C   0  0  0  0  0  0  0  0  0  0  0  0
   13.2789    6.7684   -2.4223 C   0  0  0  0  0  0  0  0  0  0  0  0
   13.4683    5.7508   -1.4832 C   0  0  0  0  0  0  0  0  0  0  0  0
    5.4789   -2.4223    0.9113 H   0  0  0  0  0  0  0  0  0  0  0  0
    6.4751   -1.3147   -0.0402 H   0  0  0  0  0  0  0  0  0  0  0  0
    4.7234   -1.5402   -0.4210 H   0  0  0  0  0  0  0  0  0  0  0  0
    4.4250    1.6628    2.5904 H   0  0  0  0  0  0  0  0  0  0  0  0
    4.2262    3.9545    1.6032 H   0  0  0  0  0  0  0  0  0  0  0  0
    4.7682    4.2776   -0.7926 H   0  0  0  0  0  0  0  0  0  0  0  0
    7.4127    3.8598   -0.8920 H   0  0  0  0  0  0  0  0  0  0  0  0
    8.4786    6.4319   -4.1706 H   0  0  0  0  0  0  0  0  0  0  0  0
    5.8943    3.0558   -4.8194 H   0  0  0  0  0  0  0  0  0  0  0  0
    9.2836    6.8628   -1.9443 H   0  0  0  0  0  0  0  0  0  0  0  0
    8.9655    7.4882    1.5657 H   0  0  0  0  0  0  0  0  0  0  0  0
    9.4861    8.1421    0.0348 H   0  0  0  0  0  0  0  0  0  0  0  0
   10.0805    5.2301    2.4122 H   0  0  0  0  0  0  0  0  0  0  0  0
   13.5370    3.9490    0.6331 H   0  0  0  0  0  0  0  0  0  0  0  0
   11.4004    8.8555   -0.5476 H   0  0  0  0  0  0  0  0  0  0  0  0
   12.4544    8.7359   -2.7657 H   0  0  0  0  0  0  0  0  0  0  0  0
   13.7246    6.6951   -3.4100 H   0  0  0  0  0  0  0  0  0  0  0  0
   14.1177    4.9124   -1.7311 H   0  0  0  0  0  0  0  0  0  0  0  0
  1  2  1  0  0  0  0
  1 31  1  0  0  0  0
  1 32  1  0  0  0  0
  1 33  1  0  0  0  0
  2  3  1  0  0  0  0
  3  4  1  0  0  0  0
  3  8  2  0  0  0  0
  4  5  2  0  0  0  0
  4 34  1  0  0  0  0
  5  6  1  0  0  0  0
  5 35  1  0  0  0  0
  6  7  2  0  0  0  0
  6 36  1  0  0  0  0
  7  8  1  0  0  0  0
  7  9  1  0  0  0  0
  9 10  1  0  0  0  0
 10 11  1  0  0  0  0
 10 15  2  0  0  0  0
 11 12  2  0  0  0  0
 11 37  1  0  0  0  0
 12 13  1  0  0  0  0
 12 17  1  0  0  0  0
 13 14  2  0  0  0  0
 13 38  1  0  0  0  0
 14 15  1  0  0  0  0
 14 16  1  0  0  0  0
 15 39  1  0  0  0  0
 17 18  1  0  0  0  0
 17 40  1  0  0  0  0
 18 19  2  0  0  0  0
 18 20  1  0  0  0  0
 20 21  1  0  0  0  0
 20 41  1  0  0  0  0
 20 42  1  0  0  0  0
 21 22  1  0  0  0  0
 21 26  2  0  0  0  0
 22 23  2  0  0  0  0
 22 43  1  0  0  0  0
 23 24  1  0  0  0  0
 24 25  2  0  0  0  0
 24 44  1  0  0  0  0
 25 26  1  0  0  0  0
 25 30  1  0  0  0  0
 26 27  1  0  0  0  0
 27 28  2  0  0  0  0
 27 45  1  0  0  0  0
 28 29  1  0  0  0  0
 28 46  1  0  0  0  0
 29 30  2  0  0  0  0
 29 47  1  0  0  0  0
 30 48  1  0  0  0  0
M  END
$$$$
