
 OpenBabel07202414173D

 43 47  0  0  1  0  0  0  0  0999 V2000
    1.1242    0.5666   -0.1038 Cl  0  0  0  0  0  0  0  0  0  0  0  0
    2.8352    0.4156   -0.0657 C   0  0  0  0  0  0  0  0  0  0  0  0
    3.6369    1.5472   -0.0395 C   0  0  0  0  0  0  0  0  0  0  0  0
    5.0216    1.3994    0.0030 C   0  0  0  0  0  0  0  0  0  0  0  0
    5.6070    0.1306    0.0377 C   0  0  0  0  0  0  0  0  0  0  0  0
    4.8148   -1.0187   -0.0110 C   0  0  0  0  0  0  0  0  0  0  0  0
    3.4146   -0.8550   -0.0601 C   0  0  0  0  0  0  0  0  0  0  0  0
    5.4467   -2.4011    0.0508 C   0  0  3  0  0  0  0  0  0  0  0  0
    6.9701   -2.3162   -0.1053 C   0  0  0  0  0  0  0  0  0  0  0  0
    7.5499   -1.0931    0.5727 C   0  0  0  0  0  0  0  0  0  0  0  0
    6.9736    0.1169    0.0824 O   0  0  0  0  0  0  0  0  0  0  0  0
    4.9215   -3.3481   -1.0331 C   0  0  0  0  0  0  0  0  0  0  0  0
    3.9498   -4.2774   -0.3482 C   0  0  0  0  0  0  0  0  0  0  0  0
    3.9417   -3.9678    1.0478 N   0  0  0  0  0  0  0  0  0  0  0  0
    2.9941   -4.5266    1.9819 C   0  0  0  0  0  0  0  0  0  0  0  0
    2.9087   -3.9687    3.2682 C   0  0  0  0  0  0  0  0  0  0  0  0
    2.1182   -4.4114    4.2737 N   0  0  0  0  0  0  0  0  0  0  0  0
    1.3198   -5.4523    3.9890 C   0  0  0  0  0  0  0  0  0  0  0  0
    1.2068   -6.0444    2.7359 C   0  0  0  0  0  0  0  0  0  0  0  0
    0.2498   -7.0614    2.5428 C   0  0  0  0  0  0  0  0  0  0  0  0
    0.0702   -7.6619    1.3041 C   0  0  0  0  0  0  0  0  0  0  0  0
    0.8760   -7.2737    0.2528 C   0  0  0  0  0  0  0  0  0  0  0  0
    1.8490   -6.2867    0.4489 C   0  0  0  0  0  0  0  0  0  0  0  0
    2.0550   -5.5967    1.6839 C   0  0  0  0  0  0  0  0  0  0  0  0
    4.9963   -3.0832    1.3622 C   0  0  0  0  0  0  0  0  0  0  0  0
    5.4459   -2.7984    2.4585 O   0  0  0  0  0  0  0  0  0  0  0  0
    3.1973    2.5376   -0.0356 H   0  0  0  0  0  0  0  0  0  0  0  0
    5.6564    2.2798    0.0407 H   0  0  0  0  0  0  0  0  0  0  0  0
    2.7532   -1.7168   -0.0715 H   0  0  0  0  0  0  0  0  0  0  0  0
    7.2107   -2.2357   -1.1761 H   0  0  0  0  0  0  0  0  0  0  0  0
    7.4585   -3.2249    0.2661 H   0  0  0  0  0  0  0  0  0  0  0  0
    8.6210   -1.0448    0.3393 H   0  0  0  0  0  0  0  0  0  0  0  0
    7.4612   -1.1354    1.6629 H   0  0  0  0  0  0  0  0  0  0  0  0
    5.7215   -3.9539   -1.4787 H   0  0  0  0  0  0  0  0  0  0  0  0
    4.4431   -2.8248   -1.8688 H   0  0  0  0  0  0  0  0  0  0  0  0
    4.3144   -5.3045   -0.4620 H   0  0  0  0  0  0  0  0  0  0  0  0
    2.9566   -4.1407   -0.7804 H   0  0  0  0  0  0  0  0  0  0  0  0
    3.4664   -3.0805    3.5512 H   0  0  0  0  0  0  0  0  0  0  0  0
    0.7338   -5.8060    4.8346 H   0  0  0  0  0  0  0  0  0  0  0  0
   -0.3871   -7.3802    3.3683 H   0  0  0  0  0  0  0  0  0  0  0  0
   -0.6953   -8.4195    1.1610 H   0  0  0  0  0  0  0  0  0  0  0  0
    0.7540   -7.7284   -0.7267 H   0  0  0  0  0  0  0  0  0  0  0  0
    2.4295   -6.0810   -0.4357 H   0  0  0  0  0  0  0  0  0  0  0  0
  1  2  1  0  0  0  0
  2  3  1  0  0  0  0
  2  7  2  0  0  0  0
  3  4  2  0  0  0  0
  3 27  1  0  0  0  0
  4  5  1  0  0  0  0
  4 28  1  0  0  0  0
  5  6  2  0  0  0  0
  5 11  1  0  0  0  0
  6  7  1  0  0  0  0
  6  8  1  0  0  0  0
  7 29  1  0  0  0  0
  8  9  1  0  0  0  0
  8 12  1  0  0  0  0
  8 25  1  0  0  0  0
  9 10  1  0  0  0  0
  9 30  1  0  0  0  0
  9 31  1  0  0  0  0
 10 11  1  0  0  0  0
 10 32  1  0  0  0  0
 10 33  1  0  0  0  0
 12 13  1  0  0  0  0
 12 34  1  0  0  0  0
 12 35  1  0  0  0  0
 13 14  1  0  0  0  0
 13 36  1  0  0  0  0
 13 37  1  0  0  0  0
 14 15  1  0  0  0  0
 14 25  1  0  0  0  0
 15 16  1  0  0  0  0
 15 24  2  0  0  0  0
 16 17  2  0  0  0  0
 16 38  1  0  0  0  0
 17 18  1  0  0  0  0
 18 19  2  0  0  0  0
 18 39  1  0  0  0  0
 19 20  1  0  0  0  0
 19 24  1  0  0  0  0
 20 21  2  0  0  0  0
 20 40  1  0  0  0  0
 21 22  1  0  0  0  0
 21 41  1  0  0  0  0
 22 23  2  0  0  0  0
 22 42  1  0  0  0  0
 23 24  1  0  0  0  0
 23 43  1  0  0  0  0
 25 26  2  0  0  0  0
M  END
$$$$
