
 OpenBabel07202414193D

 37 39  0  0  0  0  0  0  0  0999 V2000
    1.0167    0.0895    0.2921 N   0  0  0  0  0  0  0  0  0  0  0  0
    2.4107    0.0402    0.1141 C   0  0  0  0  0  0  0  0  0  0  0  0
    3.1601    1.2142    0.1916 C   0  0  0  0  0  0  0  0  0  0  0  0
    4.5050    1.2769    0.1643 N   0  0  0  0  0  0  0  0  0  0  0  0
    5.1602    0.0912    0.0929 C   0  0  0  0  0  0  0  0  0  0  0  0
    4.5452   -1.1642    0.0555 C   0  0  0  0  0  0  0  0  0  0  0  0
    3.1255   -1.1781    0.0878 C   0  0  0  0  0  0  0  0  0  0  0  0
    2.3615   -2.4853    0.0893 C   0  0  0  0  0  0  0  0  0  0  0  0
    3.2200   -3.6747   -0.3068 C   0  0  0  0  0  0  0  0  0  0  0  0
    4.5353   -3.5865    0.4316 C   0  0  0  0  0  0  0  0  0  0  0  0
    5.2840   -2.4076   -0.0200 N   0  0  0  0  0  0  0  0  0  0  0  0
    6.5910   -2.4698   -0.5269 C   0  0  0  0  0  0  0  0  0  0  0  0
    7.2761   -1.4795   -0.8035 O   0  0  0  0  0  0  0  0  0  0  0  0
    7.1849   -3.8410   -0.8452 C   0  0  0  0  0  0  0  0  0  0  0  0
    8.0081   -4.4322    0.2743 C   0  0  0  0  0  0  0  0  0  0  0  0
    9.1550   -3.7690    0.7352 C   0  0  0  0  0  0  0  0  0  0  0  0
    9.9360   -4.3187    1.7543 C   0  0  0  0  0  0  0  0  0  0  0  0
    9.5801   -5.5392    2.3253 C   0  0  0  0  0  0  0  0  0  0  0  0
    8.4504   -6.2105    1.8645 C   0  0  0  0  0  0  0  0  0  0  0  0
    8.0089   -7.7204    2.5631 Cl  0  0  0  0  0  0  0  0  0  0  0  0
    7.6718   -5.6706    0.8393 C   0  0  0  0  0  0  0  0  0  0  0  0
    0.6010    0.9742    0.0110 H   0  0  0  0  0  0  0  0  0  0  0  0
    0.5068   -0.6973   -0.0923 H   0  0  0  0  0  0  0  0  0  0  0  0
    2.6718    2.1812    0.2786 H   0  0  0  0  0  0  0  0  0  0  0  0
    6.2375    0.2138    0.1189 H   0  0  0  0  0  0  0  0  0  0  0  0
    1.5199   -2.4400   -0.6108 H   0  0  0  0  0  0  0  0  0  0  0  0
    1.9571   -2.6451    1.0968 H   0  0  0  0  0  0  0  0  0  0  0  0
    3.3998   -3.6641   -1.3902 H   0  0  0  0  0  0  0  0  0  0  0  0
    2.6978   -4.6079   -0.0705 H   0  0  0  0  0  0  0  0  0  0  0  0
    5.0875   -4.5128    0.2970 H   0  0  0  0  0  0  0  0  0  0  0  0
    4.3784   -3.4859    1.5143 H   0  0  0  0  0  0  0  0  0  0  0  0
    7.8448   -3.7117   -1.7153 H   0  0  0  0  0  0  0  0  0  0  0  0
    6.4172   -4.5301   -1.2077 H   0  0  0  0  0  0  0  0  0  0  0  0
    9.4526   -2.8159    0.2971 H   0  0  0  0  0  0  0  0  0  0  0  0
   10.8231   -3.7932    2.1001 H   0  0  0  0  0  0  0  0  0  0  0  0
   10.1874   -5.9607    3.1215 H   0  0  0  0  0  0  0  0  0  0  0  0
    6.8073   -6.2239    0.4815 H   0  0  0  0  0  0  0  0  0  0  0  0
  1  2  1  0  0  0  0
  1 22  1  0  0  0  0
  1 23  1  0  0  0  0
  2  3  1  0  0  0  0
  2  7  2  0  0  0  0
  3  4  2  0  0  0  0
  3 24  1  0  0  0  0
  4  5  1  0  0  0  0
  5  6  2  0  0  0  0
  5 25  1  0  0  0  0
  6  7  1  0  0  0  0
  6 11  1  0  0  0  0
  7  8  1  0  0  0  0
  8  9  1  0  0  0  0
  8 26  1  0  0  0  0
  8 27  1  0  0  0  0
  9 10  1  0  0  0  0
  9 28  1  0  0  0  0
  9 29  1  0  0  0  0
 10 11  1  0  0  0  0
 10 30  1  0  0  0  0
 10 31  1  0  0  0  0
 11 12  1  0  0  0  0
 12 13  2  0  0  0  0
 12 14  1  0  0  0  0
 14 15  1  0  0  0  0
 14 32  1  0  0  0  0
 14 33  1  0  0  0  0
 15 16  1  0  0  0  0
 15 21  2  0  0  0  0
 16 17  2  0  0  0  0
 16 34  1  0  0  0  0
 17 18  1  0  0  0  0
 17 35  1  0  0  0  0
 18 19  2  0  0  0  0
 18 36  1  0  0  0  0
 19 20  1  0  0  0  0
 19 21  1  0  0  0  0
 21 37  1  0  0  0  0
M  END
$$$$
