
 OpenBabel07202414183D

 36 39  0  0  1  0  0  0  0  0999 V2000
    5.2001   -2.1309   -2.6575 Cl  0  0  0  0  0  0  0  0  0  0  0  0
    5.9640   -0.8430   -1.8086 C   0  0  0  0  0  0  0  0  0  0  0  0
    7.2654   -1.0203   -1.3119 C   0  0  0  0  0  0  0  0  0  0  0  0
    7.9046    0.0192   -0.6323 C   0  0  0  0  0  0  0  0  0  0  0  0
    7.2122    1.2013   -0.4560 C   0  0  0  0  0  0  0  0  0  0  0  0
    5.9200    1.3726   -0.9239 C   0  0  0  0  0  0  0  0  0  0  0  0
    5.2770    0.3584   -1.6169 C   0  0  0  0  0  0  0  0  0  0  0  0
    5.4234    2.7208   -0.5411 C   0  0  2  0  0  0  0  0  0  0  0  0
    5.1071    3.6445   -1.7093 C   0  0  0  0  0  0  0  0  0  0  0  0
    3.9820    4.1341   -1.8001 O   0  0  0  0  0  0  0  0  0  0  0  0
    6.1447    3.8554   -2.5912 N   0  0  0  0  0  0  0  0  0  0  0  0
    6.0847    4.5192   -3.8507 C   0  0  0  0  0  0  0  0  0  0  0  0
    4.9034    5.0461   -4.3735 C   0  0  0  0  0  0  0  0  0  0  0  0
    4.7650    5.4771   -5.6511 N   0  0  0  0  0  0  0  0  0  0  0  0
    5.8581    5.4422   -6.4280 C   0  0  0  0  0  0  0  0  0  0  0  0
    7.1284    5.0931   -5.9785 C   0  0  0  0  0  0  0  0  0  0  0  0
    8.2579    5.2379   -6.8006 C   0  0  0  0  0  0  0  0  0  0  0  0
    9.5304    4.9168   -6.3269 C   0  0  0  0  0  0  0  0  0  0  0  0
    9.6769    4.4099   -5.0439 C   0  0  0  0  0  0  0  0  0  0  0  0
    8.5608    4.2462   -4.2254 C   0  0  0  0  0  0  0  0  0  0  0  0
    7.2536    4.5969   -4.6531 C   0  0  0  0  0  0  0  0  0  0  0  0
    6.5965    3.2056    0.3190 C   0  0  0  0  0  0  0  0  0  0  0  0
    7.7260    2.3072    0.1619 O   0  0  0  0  0  0  0  0  0  0  0  0
    7.7808   -1.9656   -1.4559 H   0  0  0  0  0  0  0  0  0  0  0  0
    8.9090   -0.1026   -0.2405 H   0  0  0  0  0  0  0  0  0  0  0  0
    4.2684    0.4914   -1.9988 H   0  0  0  0  0  0  0  0  0  0  0  0
    4.5242    2.6365    0.0823 H   0  0  0  0  0  0  0  0  0  0  0  0
    7.0057    3.3581   -2.3947 H   0  0  0  0  0  0  0  0  0  0  0  0
    3.9940    5.1412   -3.7919 H   0  0  0  0  0  0  0  0  0  0  0  0
    5.6864    5.7304   -7.4566 H   0  0  0  0  0  0  0  0  0  0  0  0
    8.1590    5.6445   -7.8036 H   0  0  0  0  0  0  0  0  0  0  0  0
   10.4019    5.0723   -6.9592 H   0  0  0  0  0  0  0  0  0  0  0  0
   10.6673    4.1565   -4.6713 H   0  0  0  0  0  0  0  0  0  0  0  0
    8.7419    3.8740   -3.2210 H   0  0  0  0  0  0  0  0  0  0  0  0
    6.3233    3.1965    1.3819 H   0  0  0  0  0  0  0  0  0  0  0  0
    6.9260    4.2212    0.0724 H   0  0  0  0  0  0  0  0  0  0  0  0
  1  2  1  0  0  0  0
  2  3  1  0  0  0  0
  2  7  2  0  0  0  0
  3  4  2  0  0  0  0
  3 24  1  0  0  0  0
  4  5  1  0  0  0  0
  4 25  1  0  0  0  0
  5  6  2  0  0  0  0
  5 23  1  0  0  0  0
  6  7  1  0  0  0  0
  6  8  1  0  0  0  0
  7 26  1  0  0  0  0
  8 22  1  0  0  0  0
  8  9  1  0  0  0  0
  8 27  1  1  0  0  0
  9 10  2  0  0  0  0
  9 11  1  0  0  0  0
 11 12  1  0  0  0  0
 11 28  1  0  0  0  0
 12 13  1  0  0  0  0
 12 21  2  0  0  0  0
 13 14  2  0  0  0  0
 13 29  1  0  0  0  0
 14 15  1  0  0  0  0
 15 16  2  0  0  0  0
 15 30  1  0  0  0  0
 16 17  1  0  0  0  0
 16 21  1  0  0  0  0
 17 18  2  0  0  0  0
 17 31  1  0  0  0  0
 18 19  1  0  0  0  0
 18 32  1  0  0  0  0
 19 20  2  0  0  0  0
 19 33  1  0  0  0  0
 20 21  1  0  0  0  0
 20 34  1  0  0  0  0
 22 23  1  0  0  0  0
 22 35  1  0  0  0  0
 22 36  1  0  0  0  0
M  END
$$$$
