
 OpenBabel07202414133D

 51 53  0  0  0  0  0  0  0  0999 V2000
    6.3634    1.5720    1.1528 C   0  0  0  0  0  0  0  0  0  0  0  0
    5.1421    0.8219    0.7990 N   0  0  0  0  0  0  0  0  0  0  0  0
    4.1753    1.7360    0.1987 C   0  0  0  0  0  0  0  0  0  0  0  0
    5.5495   -0.2676   -0.1150 C   0  0  0  0  0  0  0  0  0  0  0  0
    4.4878   -1.2701   -0.6347 C   0  0  0  0  0  0  0  0  0  0  0  0
    4.9707   -2.3578   -1.5373 N   0  0  0  0  0  0  0  0  0  0  0  0
    3.9359   -3.2971   -2.0123 C   0  0  0  0  0  0  0  0  0  0  0  0
    3.4375   -3.1049   -3.4333 C   0  0  0  0  0  0  0  0  0  0  0  0
    2.6678   -4.1362   -4.0148 C   0  0  0  0  0  0  0  0  0  0  0  0
    2.2166   -4.0460   -5.3353 C   0  0  0  0  0  0  0  0  0  0  0  0
    2.5195   -2.9241   -6.0970 C   0  0  0  0  0  0  0  0  0  0  0  0
    3.2375   -1.8771   -5.5212 C   0  0  0  0  0  0  0  0  0  0  0  0
    3.5877   -0.4767   -6.4591 Cl  0  0  0  0  0  0  0  0  0  0  0  0
    3.6887   -1.9622   -4.1991 C   0  0  0  0  0  0  0  0  0  0  0  0
    6.3366   -2.5935   -1.7273 C   0  0  0  0  0  0  0  0  0  0  0  0
    7.2303   -1.8993   -1.2376 O   0  0  0  0  0  0  0  0  0  0  0  0
    6.7814   -3.7740   -2.5659 C   0  0  0  0  0  0  0  0  0  0  0  0
    6.9308   -5.0730   -1.8051 C   0  0  0  0  0  0  0  0  0  0  0  0
    7.1964   -5.0767   -0.4355 C   0  0  0  0  0  0  0  0  0  0  0  0
    7.3520   -6.1871    0.3172 N   0  0  0  0  0  0  0  0  0  0  0  0
    7.2715   -7.3657   -0.3328 C   0  0  0  0  0  0  0  0  0  0  0  0
    7.0470   -7.4987   -1.7031 C   0  0  0  0  0  0  0  0  0  0  0  0
    7.0015   -8.7625   -2.3164 C   0  0  0  0  0  0  0  0  0  0  0  0
    6.7891   -8.8763   -3.6900 C   0  0  0  0  0  0  0  0  0  0  0  0
    6.6282   -7.7348   -4.4610 C   0  0  0  0  0  0  0  0  0  0  0  0
    6.6719   -6.4751   -3.8603 C   0  0  0  0  0  0  0  0  0  0  0  0
    6.8776   -6.3248   -2.4683 C   0  0  0  0  0  0  0  0  0  0  0  0
    6.1431    2.3776    1.8584 H   0  0  0  0  0  0  0  0  0  0  0  0
    6.8467    2.0113    0.2686 H   0  0  0  0  0  0  0  0  0  0  0  0
    7.0931    0.9153    1.6421 H   0  0  0  0  0  0  0  0  0  0  0  0
    3.9630    2.5644    0.8858 H   0  0  0  0  0  0  0  0  0  0  0  0
    3.2204    1.2316    0.0243 H   0  0  0  0  0  0  0  0  0  0  0  0
    4.5308    2.1614   -0.7463 H   0  0  0  0  0  0  0  0  0  0  0  0
    6.2619   -0.8606    0.4701 H   0  0  0  0  0  0  0  0  0  0  0  0
    6.0656    0.1651   -0.9800 H   0  0  0  0  0  0  0  0  0  0  0  0
    3.7041   -0.7355   -1.1836 H   0  0  0  0  0  0  0  0  0  0  0  0
    4.0166   -1.7616    0.2251 H   0  0  0  0  0  0  0  0  0  0  0  0
    3.0823   -3.2587   -1.3232 H   0  0  0  0  0  0  0  0  0  0  0  0
    4.3402   -4.3110   -1.9402 H   0  0  0  0  0  0  0  0  0  0  0  0
    2.4220   -5.0288   -3.4409 H   0  0  0  0  0  0  0  0  0  0  0  0
    1.6393   -4.8573   -5.7722 H   0  0  0  0  0  0  0  0  0  0  0  0
    2.1797   -2.8591   -7.1266 H   0  0  0  0  0  0  0  0  0  0  0  0
    4.2502   -1.1279   -3.7791 H   0  0  0  0  0  0  0  0  0  0  0  0
    7.7652   -3.5184   -2.9827 H   0  0  0  0  0  0  0  0  0  0  0  0
    6.1067   -3.8596   -3.4183 H   0  0  0  0  0  0  0  0  0  0  0  0
    7.3083   -4.1543    0.1364 H   0  0  0  0  0  0  0  0  0  0  0  0
    7.4095   -8.2359    0.3034 H   0  0  0  0  0  0  0  0  0  0  0  0
    7.1342   -9.6666   -1.7288 H   0  0  0  0  0  0  0  0  0  0  0  0
    6.7612   -9.8594   -4.1555 H   0  0  0  0  0  0  0  0  0  0  0  0
    6.4726   -7.8173   -5.5344 H   0  0  0  0  0  0  0  0  0  0  0  0
    6.5555   -5.6115   -4.5098 H   0  0  0  0  0  0  0  0  0  0  0  0
  1  2  1  0  0  0  0
  1 28  1  0  0  0  0
  1 29  1  0  0  0  0
  1 30  1  0  0  0  0
  2  3  1  0  0  0  0
  2  4  1  0  0  0  0
  3 31  1  0  0  0  0
  3 32  1  0  0  0  0
  3 33  1  0  0  0  0
  4  5  1  0  0  0  0
  4 34  1  0  0  0  0
  4 35  1  0  0  0  0
  5  6  1  0  0  0  0
  5 36  1  0  0  0  0
  5 37  1  0  0  0  0
  6  7  1  0  0  0  0
  6 15  1  0  0  0  0
  7  8  1  0  0  0  0
  7 38  1  0  0  0  0
  7 39  1  0  0  0  0
  8  9  1  0  0  0  0
  8 14  2  0  0  0  0
  9 10  2  0  0  0  0
  9 40  1  0  0  0  0
 10 11  1  0  0  0  0
 10 41  1  0  0  0  0
 11 12  2  0  0  0  0
 11 42  1  0  0  0  0
 12 13  1  0  0  0  0
 12 14  1  0  0  0  0
 14 43  1  0  0  0  0
 15 16  2  0  0  0  0
 15 17  1  0  0  0  0
 17 18  1  0  0  0  0
 17 44  1  0  0  0  0
 17 45  1  0  0  0  0
 18 19  1  0  0  0  0
 18 27  2  0  0  0  0
 19 20  2  0  0  0  0
 19 46  1  0  0  0  0
 20 21  1  0  0  0  0
 21 22  2  0  0  0  0
 21 47  1  0  0  0  0
 22 23  1  0  0  0  0
 22 27  1  0  0  0  0
 23 24  2  0  0  0  0
 23 48  1  0  0  0  0
 24 25  1  0  0  0  0
 24 49  1  0  0  0  0
 25 26  2  0  0  0  0
 25 50  1  0  0  0  0
 26 27  1  0  0  0  0
 26 51  1  0  0  0  0
M  END
$$$$
