
 OpenBabel07202414183D

 46 49  0  0  0  0  0  0  0  0999 V2000
    8.1423    4.9914    1.5957 F   0  0  0  0  0  0  0  0  0  0  0  0
    7.7486    3.8108    1.1182 C   0  0  0  0  0  0  0  0  0  0  0  0
    6.4764    3.3334    1.4081 C   0  0  0  0  0  0  0  0  0  0  0  0
    6.0777    2.0910    0.8989 C   0  0  0  0  0  0  0  0  0  0  0  0
    4.3304    1.4805    1.3308 Br  0  0  0  0  0  0  0  0  0  0  0  0
    6.9426    1.3092    0.1048 C   0  0  0  0  0  0  0  0  0  0  0  0
    6.5398    0.0589   -0.4085 N   0  0  0  0  0  0  0  0  0  0  0  0
    7.2951   -1.1208   -0.5538 C   0  0  0  0  0  0  0  0  0  0  0  0
    6.9077   -2.0443   -1.5338 C   0  0  0  0  0  0  0  0  0  0  0  0
    7.6271   -3.2255   -1.7021 C   0  0  0  0  0  0  0  0  0  0  0  0
    7.1393   -4.3477   -2.9117 Cl  0  0  0  0  0  0  0  0  0  0  0  0
    8.7276   -3.5152   -0.8922 C   0  0  0  0  0  0  0  0  0  0  0  0
    9.1256   -2.6159    0.1105 C   0  0  0  0  0  0  0  0  0  0  0  0
   10.2494   -2.9691    1.0693 C   0  0  0  0  0  0  0  0  0  0  0  0
   11.4478   -2.0207    1.0861 C   0  0  0  0  0  0  0  0  0  0  0  0
   11.8871   -1.5257    2.1237 O   0  0  0  0  0  0  0  0  0  0  0  0
   11.9895   -1.8628   -0.1590 N   0  0  0  0  0  0  0  0  0  0  0  0
   13.1033   -1.0620   -0.5147 C   0  0  0  0  0  0  0  0  0  0  0  0
   12.8095   -0.1533   -1.5309 C   0  0  0  0  0  0  0  0  0  0  0  0
   13.5096   -0.0465   -2.6731 N   0  0  0  0  0  0  0  0  0  0  0  0
   14.6235   -0.8035   -2.7501 C   0  0  0  0  0  0  0  0  0  0  0  0
   15.1605   -1.5332   -1.6889 C   0  0  0  0  0  0  0  0  0  0  0  0
   16.4204   -2.1429   -1.7923 C   0  0  0  0  0  0  0  0  0  0  0  0
   16.9776   -2.8006   -0.6984 C   0  0  0  0  0  0  0  0  0  0  0  0
   16.2577   -2.8988    0.4885 C   0  0  0  0  0  0  0  0  0  0  0  0
   14.9668   -2.3566    0.5776 C   0  0  0  0  0  0  0  0  0  0  0  0
   14.3946   -1.6480   -0.5067 C   0  0  0  0  0  0  0  0  0  0  0  0
    8.4037   -1.4198    0.2582 C   0  0  0  0  0  0  0  0  0  0  0  0
    8.2216    1.8159   -0.1769 C   0  0  0  0  0  0  0  0  0  0  0  0
    8.6165    3.0521    0.3278 C   0  0  0  0  0  0  0  0  0  0  0  0
    9.8434    3.5142    0.0418 F   0  0  0  0  0  0  0  0  0  0  0  0
    5.8227    3.9339    2.0199 H   0  0  0  0  0  0  0  0  0  0  0  0
    5.5484   -0.1315   -0.2666 H   0  0  0  0  0  0  0  0  0  0  0  0
    6.0509   -1.8334   -2.1728 H   0  0  0  0  0  0  0  0  0  0  0  0
    9.2572   -4.4550   -1.0333 H   0  0  0  0  0  0  0  0  0  0  0  0
   10.6471   -3.9643    0.8201 H   0  0  0  0  0  0  0  0  0  0  0  0
    9.8343   -3.0418    2.0788 H   0  0  0  0  0  0  0  0  0  0  0  0
   11.3256   -1.9752   -0.9180 H   0  0  0  0  0  0  0  0  0  0  0  0
   11.8993    0.4389   -1.4897 H   0  0  0  0  0  0  0  0  0  0  0  0
   15.0987   -0.7966   -3.7273 H   0  0  0  0  0  0  0  0  0  0  0  0
   16.9917   -2.0731   -2.7154 H   0  0  0  0  0  0  0  0  0  0  0  0
   17.9789   -3.2184   -0.7710 H   0  0  0  0  0  0  0  0  0  0  0  0
   16.7049   -3.3869    1.3501 H   0  0  0  0  0  0  0  0  0  0  0  0
   14.4328   -2.4306    1.5240 H   0  0  0  0  0  0  0  0  0  0  0  0
    8.6820   -0.7316    1.0550 H   0  0  0  0  0  0  0  0  0  0  0  0
    8.9104    1.2657   -0.8124 H   0  0  0  0  0  0  0  0  0  0  0  0
  1  2  1  0  0  0  0
  2  3  2  0  0  0  0
  2 30  1  0  0  0  0
  3  4  1  0  0  0  0
  3 32  1  0  0  0  0
  4  5  1  0  0  0  0
  4  6  2  0  0  0  0
  6  7  1  0  0  0  0
  6 29  1  0  0  0  0
  7  8  1  0  0  0  0
  7 33  1  0  0  0  0
  8  9  2  0  0  0  0
  8 28  1  0  0  0  0
  9 10  1  0  0  0  0
  9 34  1  0  0  0  0
 10 11  1  0  0  0  0
 10 12  2  0  0  0  0
 12 13  1  0  0  0  0
 12 35  1  0  0  0  0
 13 14  1  0  0  0  0
 13 28  2  0  0  0  0
 14 15  1  0  0  0  0
 14 36  1  0  0  0  0
 14 37  1  0  0  0  0
 15 16  2  0  0  0  0
 15 17  1  0  0  0  0
 17 18  1  0  0  0  0
 17 38  1  0  0  0  0
 18 19  2  0  0  0  0
 18 27  1  0  0  0  0
 19 20  1  0  0  0  0
 19 39  1  0  0  0  0
 20 21  2  0  0  0  0
 21 22  1  0  0  0  0
 21 40  1  0  0  0  0
 22 23  2  0  0  0  0
 22 27  1  0  0  0  0
 23 24  1  0  0  0  0
 23 41  1  0  0  0  0
 24 25  2  0  0  0  0
 24 42  1  0  0  0  0
 25 26  1  0  0  0  0
 25 43  1  0  0  0  0
 26 27  2  0  0  0  0
 26 44  1  0  0  0  0
 28 45  1  0  0  0  0
 29 30  2  0  0  0  0
 29 46  1  0  0  0  0
 30 31  1  0  0  0  0
M  END
$$$$
