
 OpenBabel07202414123D

 68 71  0  0  1  0  0  0  0  0999 V2000
    4.5995    1.7000    0.0343 C   0  0  0  0  0  0  0  0  0  0  0  0
    3.2490    1.1000    0.5001 C   0  0  0  0  0  0  0  0  0  0  0  0
    2.4003    2.2824    1.0272 C   0  0  0  0  0  0  0  0  0  0  0  0
    2.5435    0.5278   -0.7474 C   0  0  0  0  0  0  0  0  0  0  0  0
    3.4255    0.0209    1.5949 C   0  0  0  0  0  0  0  0  0  0  0  0
    4.6898   -0.3201    2.1029 C   0  0  0  0  0  0  0  0  0  0  0  0
    4.8415   -1.1772    3.2030 C   0  0  0  0  0  0  0  0  0  0  0  0
    3.7401   -1.7834    3.8094 C   0  0  0  0  0  0  0  0  0  0  0  0
    3.9270   -2.5036    5.0532 N   0  0  0  0  0  0  0  0  0  0  0  0
    3.3872   -3.8972    5.1579 C   0  0  3  0  0  0  0  0  0  0  0  0
    2.8551   -4.5805    3.8561 C   0  0  0  0  0  0  0  0  0  0  0  0
    3.4632   -4.5974    2.7920 O   0  0  0  0  0  0  0  0  0  0  0  0
    1.6488   -5.2435    4.0395 N   0  0  0  0  0  0  0  0  0  0  0  0
    1.0982   -6.0659    2.9778 C   0  0  0  0  0  0  0  0  0  0  0  0
   -0.2550   -6.6406    3.3923 C   0  0  0  0  0  0  0  0  0  0  0  0
   -0.8678   -7.5114    2.3310 C   0  0  0  0  0  0  0  0  0  0  0  0
   -1.7449   -6.9665    1.3821 C   0  0  0  0  0  0  0  0  0  0  0  0
   -2.3087   -7.7748    0.3919 C   0  0  0  0  0  0  0  0  0  0  0  0
   -1.9957   -9.1320    0.3393 C   0  0  0  0  0  0  0  0  0  0  0  0
   -1.1246   -9.6699    1.2775 C   0  0  0  0  0  0  0  0  0  0  0  0
   -0.8239  -10.9743    1.2296 F   0  0  0  0  0  0  0  0  0  0  0  0
   -0.5589   -8.8759    2.2696 C   0  0  0  0  0  0  0  0  0  0  0  0
    4.3526   -4.9177    5.7928 C   0  0  0  0  0  0  0  0  0  0  0  0
    3.8596   -6.0190    6.5245 C   0  0  0  0  0  0  0  0  0  0  0  0
    4.7420   -6.8831    7.1784 C   0  0  0  0  0  0  0  0  0  0  0  0
    6.0928   -6.6287    7.0579 C   0  0  0  0  0  0  0  0  0  0  0  0
    6.6026   -5.6363    6.3073 N   0  0  0  0  0  0  0  0  0  0  0  0
    5.7274   -4.8177    5.6721 C   0  0  0  0  0  0  0  0  0  0  0  0
    4.3695   -1.7088    6.1316 C   0  0  0  0  0  0  0  0  0  0  0  0
    4.7338   -0.5314    5.9946 O   0  0  0  0  0  0  0  0  0  0  0  0
    4.4690   -2.2326    7.5362 C   0  0  0  0  0  0  0  0  0  0  0  0
    3.8313   -3.1875    8.2297 C   0  0  0  0  0  0  0  0  0  0  0  0
    4.3299   -3.2422    9.5055 N   0  0  0  0  0  0  0  0  0  0  0  0
    5.2845   -2.2350    9.6686 C   0  0  0  0  0  0  0  0  0  0  0  0
    5.9041   -1.9692   10.6792 O   0  0  0  0  0  0  0  0  0  0  0  0
    5.3411   -1.6113    8.4221 N   0  0  0  0  0  0  0  0  0  0  0  0
    2.4787   -1.5496    3.2486 C   0  0  0  0  0  0  0  0  0  0  0  0
    2.3257   -0.6424    2.1727 C   0  0  0  0  0  0  0  0  0  0  0  0
    4.4618    2.4652   -0.7377 H   0  0  0  0  0  0  0  0  0  0  0  0
    5.2554    0.9294   -0.3878 H   0  0  0  0  0  0  0  0  0  0  0  0
    5.1304    2.1780    0.8674 H   0  0  0  0  0  0  0  0  0  0  0  0
    2.2239    3.0220    0.2343 H   0  0  0  0  0  0  0  0  0  0  0  0
    2.9054    2.8038    1.8484 H   0  0  0  0  0  0  0  0  0  0  0  0
    1.4176    1.9625    1.3887 H   0  0  0  0  0  0  0  0  0  0  0  0
    2.3529    1.3183   -1.4855 H   0  0  0  0  0  0  0  0  0  0  0  0
    1.5748    0.0779   -0.5068 H   0  0  0  0  0  0  0  0  0  0  0  0
    3.1566   -0.2359   -1.2376 H   0  0  0  0  0  0  0  0  0  0  0  0
    5.6013    0.0975    1.6859 H   0  0  0  0  0  0  0  0  0  0  0  0
    5.8428   -1.3410    3.5949 H   0  0  0  0  0  0  0  0  0  0  0  0
    2.5240   -3.7865    5.8272 H   0  0  0  0  0  0  0  0  0  0  0  0
    1.3753   -5.4774    4.9834 H   0  0  0  0  0  0  0  0  0  0  0  0
    1.8192   -6.8652    2.7689 H   0  0  0  0  0  0  0  0  0  0  0  0
    1.0152   -5.4509    2.0742 H   0  0  0  0  0  0  0  0  0  0  0  0
   -0.9456   -5.8273    3.6507 H   0  0  0  0  0  0  0  0  0  0  0  0
   -0.1407   -7.2254    4.3150 H   0  0  0  0  0  0  0  0  0  0  0  0
   -1.9975   -5.9080    1.4084 H   0  0  0  0  0  0  0  0  0  0  0  0
   -2.9902   -7.3448   -0.3379 H   0  0  0  0  0  0  0  0  0  0  0  0
   -2.4233   -9.7714   -0.4263 H   0  0  0  0  0  0  0  0  0  0  0  0
    0.1164   -9.3347    2.9856 H   0  0  0  0  0  0  0  0  0  0  0  0
    2.7961   -6.2023    6.6310 H   0  0  0  0  0  0  0  0  0  0  0  0
    4.3781   -7.7139    7.7730 H   0  0  0  0  0  0  0  0  0  0  0  0
    6.8262   -7.2410    7.5863 H   0  0  0  0  0  0  0  0  0  0  0  0
    6.1963   -4.0409    5.0714 H   0  0  0  0  0  0  0  0  0  0  0  0
    3.0495   -3.8621    7.9403 H   0  0  0  0  0  0  0  0  0  0  0  0
    4.0812   -3.8918   10.2356 H   0  0  0  0  0  0  0  0  0  0  0  0
    5.9087   -0.8050    8.1999 H   0  0  0  0  0  0  0  0  0  0  0  0
    1.5853   -2.0030    3.6643 H   0  0  0  0  0  0  0  0  0  0  0  0
    1.3180   -0.4362    1.8142 H   0  0  0  0  0  0  0  0  0  0  0  0
  1  2  1  0  0  0  0
  1 39  1  0  0  0  0
  1 40  1  0  0  0  0
  1 41  1  0  0  0  0
  2  3  1  0  0  0  0
  2  4  1  0  0  0  0
  2  5  1  0  0  0  0
  3 42  1  0  0  0  0
  3 43  1  0  0  0  0
  3 44  1  0  0  0  0
  4 45  1  0  0  0  0
  4 46  1  0  0  0  0
  4 47  1  0  0  0  0
  5  6  1  0  0  0  0
  5 38  2  0  0  0  0
  6  7  2  0  0  0  0
  6 48  1  0  0  0  0
  7  8  1  0  0  0  0
  7 49  1  0  0  0  0
  8  9  1  0  0  0  0
  8 37  2  0  0  0  0
  9 10  1  0  0  0  0
  9 29  1  0  0  0  0
 10 11  1  0  0  0  0
 10 23  1  0  0  0  0
 10 50  1  0  0  0  0
 11 12  2  0  0  0  0
 11 13  1  0  0  0  0
 13 14  1  0  0  0  0
 13 51  1  0  0  0  0
 14 15  1  0  0  0  0
 14 52  1  0  0  0  0
 14 53  1  0  0  0  0
 15 16  1  0  0  0  0
 15 54  1  0  0  0  0
 15 55  1  0  0  0  0
 16 17  1  0  0  0  0
 16 22  2  0  0  0  0
 17 18  2  0  0  0  0
 17 56  1  0  0  0  0
 18 19  1  0  0  0  0
 18 57  1  0  0  0  0
 19 20  2  0  0  0  0
 19 58  1  0  0  0  0
 20 21  1  0  0  0  0
 20 22  1  0  0  0  0
 22 59  1  0  0  0  0
 23 24  1  0  0  0  0
 23 28  2  0  0  0  0
 24 25  2  0  0  0  0
 24 60  1  0  0  0  0
 25 26  1  0  0  0  0
 25 61  1  0  0  0  0
 26 27  2  0  0  0  0
 26 62  1  0  0  0  0
 27 28  1  0  0  0  0
 28 63  1  0  0  0  0
 29 30  2  0  0  0  0
 29 31  1  0  0  0  0
 31 32  2  0  0  0  0
 31 36  1  0  0  0  0
 32 33  1  0  0  0  0
 32 64  1  0  0  0  0
 33 34  1  0  0  0  0
 33 65  1  0  0  0  0
 34 35  2  0  0  0  0
 34 36  1  0  0  0  0
 36 66  1  0  0  0  0
 37 38  1  0  0  0  0
 37 67  1  0  0  0  0
 38 68  1  0  0  0  0
M  END
$$$$
