
 OpenBabel07202414163D

 57 62  0  0  0  0  0  0  0  0999 V2000
   -2.0880   -0.1806   -0.0469 Cl  0  0  0  0  0  0  0  0  0  0  0  0
   -0.3690   -0.0863   -0.0329 C   0  0  0  0  0  0  0  0  0  0  0  0
    0.2535    1.1621   -0.0063 C   0  0  0  0  0  0  0  0  0  0  0  0
    1.6504    1.2855   -0.0146 C   0  0  0  0  0  0  0  0  0  0  0  0
    2.2534    2.5331   -0.0902 N   0  0  0  0  0  0  0  0  0  0  0  0
    3.6398    2.6787   -0.5988 C   0  0  0  0  0  0  0  0  0  0  0  0
    3.7621    3.9205   -1.5095 C   0  0  0  0  0  0  0  0  0  0  0  0
    3.2275    5.1178   -0.8068 C   0  0  0  0  0  0  0  0  0  0  0  0
    2.2870    4.9850    0.1916 C   0  0  0  0  0  0  0  0  0  0  0  0
    1.7167    3.6884    0.6763 C   0  0  0  0  0  0  0  0  0  0  0  0
    1.9733    6.2359    0.6482 N   0  0  0  0  0  0  0  0  0  0  0  0
    2.6998    7.1796   -0.0501 C   0  0  0  0  0  0  0  0  0  0  0  0
    3.4984    6.4980   -0.9736 C   0  0  0  0  0  0  0  0  0  0  0  0
    4.3434    7.2347   -1.8233 C   0  0  0  0  0  0  0  0  0  0  0  0
    4.3665    8.6309   -1.7192 C   0  0  0  0  0  0  0  0  0  0  0  0
    3.5577    9.2869   -0.7944 C   0  0  0  0  0  0  0  0  0  0  0  0
    2.7124    8.5758    0.0602 C   0  0  0  0  0  0  0  0  0  0  0  0
    2.3904    0.0848   -0.0191 C   0  0  0  0  0  0  0  0  0  0  0  0
    1.7783   -1.1830   -0.0672 C   0  0  0  0  0  0  0  0  0  0  0  0
    2.5990   -2.4533   -0.0582 C   0  0  0  0  0  0  0  0  0  0  0  0
    3.6071   -2.6153   -1.1840 C   0  0  0  0  0  0  0  0  0  0  0  0
    4.7533   -2.9937   -0.9497 O   0  0  0  0  0  0  0  0  0  0  0  0
    3.1162   -2.3553   -2.4513 N   0  0  0  0  0  0  0  0  0  0  0  0
    3.9074   -2.5087   -3.6182 C   0  0  0  0  0  0  0  0  0  0  0  0
    4.7004   -3.6435   -3.8066 C   0  0  0  0  0  0  0  0  0  0  0  0
    5.4434   -3.8842   -4.9112 N   0  0  0  0  0  0  0  0  0  0  0  0
    5.4230   -2.9280   -5.8627 C   0  0  0  0  0  0  0  0  0  0  0  0
    4.6927   -1.7409   -5.7831 C   0  0  0  0  0  0  0  0  0  0  0  0
    4.7574   -0.7678   -6.7958 C   0  0  0  0  0  0  0  0  0  0  0  0
    4.0538    0.4296   -6.6779 C   0  0  0  0  0  0  0  0  0  0  0  0
    3.2746    0.6650   -5.5525 C   0  0  0  0  0  0  0  0  0  0  0  0
    3.1934   -0.2978   -4.5447 C   0  0  0  0  0  0  0  0  0  0  0  0
    3.8959   -1.5238   -4.6343 C   0  0  0  0  0  0  0  0  0  0  0  0
    0.3833   -1.2546   -0.0706 C   0  0  0  0  0  0  0  0  0  0  0  0
   -0.3782    2.0444   -0.0324 H   0  0  0  0  0  0  0  0  0  0  0  0
    3.9461    1.8202   -1.2055 H   0  0  0  0  0  0  0  0  0  0  0  0
    4.3300    2.7539    0.2512 H   0  0  0  0  0  0  0  0  0  0  0  0
    3.1744    3.7601   -2.4214 H   0  0  0  0  0  0  0  0  0  0  0  0
    4.8064    4.0683   -1.8009 H   0  0  0  0  0  0  0  0  0  0  0  0
    0.6282    3.7617    0.5854 H   0  0  0  0  0  0  0  0  0  0  0  0
    1.9560    3.5604    1.7395 H   0  0  0  0  0  0  0  0  0  0  0  0
    1.3100    6.4520    1.3793 H   0  0  0  0  0  0  0  0  0  0  0  0
    4.9700    6.7295   -2.5502 H   0  0  0  0  0  0  0  0  0  0  0  0
    5.0183    9.2028   -2.3775 H   0  0  0  0  0  0  0  0  0  0  0  0
    3.5956   10.3727   -0.7337 H   0  0  0  0  0  0  0  0  0  0  0  0
    2.0875    9.0951    0.7787 H   0  0  0  0  0  0  0  0  0  0  0  0
    3.4774    0.1230    0.0396 H   0  0  0  0  0  0  0  0  0  0  0  0
    1.9456   -3.3333   -0.0958 H   0  0  0  0  0  0  0  0  0  0  0  0
    3.1402   -2.5000    0.8945 H   0  0  0  0  0  0  0  0  0  0  0  0
    2.3211   -1.7324   -2.5085 H   0  0  0  0  0  0  0  0  0  0  0  0
    4.7326   -4.4406   -3.0679 H   0  0  0  0  0  0  0  0  0  0  0  0
    6.0486   -3.1468   -6.7259 H   0  0  0  0  0  0  0  0  0  0  0  0
    5.3761   -0.9291   -7.6770 H   0  0  0  0  0  0  0  0  0  0  0  0
    4.1243    1.1828   -7.4582 H   0  0  0  0  0  0  0  0  0  0  0  0
    2.7381    1.6047   -5.4460 H   0  0  0  0  0  0  0  0  0  0  0  0
    2.5963   -0.0530   -3.6706 H   0  0  0  0  0  0  0  0  0  0  0  0
   -0.1221   -2.2172   -0.0912 H   0  0  0  0  0  0  0  0  0  0  0  0
  1  2  1  0  0  0  0
  2  3  2  0  0  0  0
  2 34  1  0  0  0  0
  3  4  1  0  0  0  0
  3 35  1  0  0  0  0
  4  5  1  0  0  0  0
  4 18  2  0  0  0  0
  5  6  1  0  0  0  0
  5 10  1  0  0  0  0
  6  7  1  0  0  0  0
  6 36  1  0  0  0  0
  6 37  1  0  0  0  0
  7  8  1  0  0  0  0
  7 38  1  0  0  0  0
  7 39  1  0  0  0  0
  8  9  2  0  0  0  0
  8 13  1  0  0  0  0
  9 10  1  0  0  0  0
  9 11  1  0  0  0  0
 10 40  1  0  0  0  0
 10 41  1  0  0  0  0
 11 12  1  0  0  0  0
 11 42  1  0  0  0  0
 12 13  2  0  0  0  0
 12 17  1  0  0  0  0
 13 14  1  0  0  0  0
 14 15  2  0  0  0  0
 14 43  1  0  0  0  0
 15 16  1  0  0  0  0
 15 44  1  0  0  0  0
 16 17  2  0  0  0  0
 16 45  1  0  0  0  0
 17 46  1  0  0  0  0
 18 19  1  0  0  0  0
 18 47  1  0  0  0  0
 19 20  1  0  0  0  0
 19 34  2  0  0  0  0
 20 21  1  0  0  0  0
 20 48  1  0  0  0  0
 20 49  1  0  0  0  0
 21 22  2  0  0  0  0
 21 23  1  0  0  0  0
 23 24  1  0  0  0  0
 23 50  1  0  0  0  0
 24 25  2  0  0  0  0
 24 33  1  0  0  0  0
 25 26  1  0  0  0  0
 25 51  1  0  0  0  0
 26 27  2  0  0  0  0
 27 28  1  0  0  0  0
 27 52  1  0  0  0  0
 28 29  2  0  0  0  0
 28 33  1  0  0  0  0
 29 30  1  0  0  0  0
 29 53  1  0  0  0  0
 30 31  2  0  0  0  0
 30 54  1  0  0  0  0
 31 32  1  0  0  0  0
 31 55  1  0  0  0  0
 32 33  2  0  0  0  0
 32 56  1  0  0  0  0
 34 57  1  0  0  0  0
M  END
$$$$
