
 OpenBabel07202414183D

 39 42  0  0  1  0  0  0  0  0999 V2000
    9.6480   -5.8190   -0.2952 Cl  0  0  0  0  0  0  0  0  0  0  0  0
    8.4158   -4.9262    0.5025 C   0  0  0  0  0  0  0  0  0  0  0  0
    8.3134   -4.9719    1.8907 C   0  0  0  0  0  0  0  0  0  0  0  0
    7.3430   -4.2055    2.5376 C   0  0  0  0  0  0  0  0  0  0  0  0
    6.4572   -3.4202    1.7915 C   0  0  0  0  0  0  0  0  0  0  0  0
    6.4942   -3.4429    0.3880 C   0  0  0  0  0  0  0  0  0  0  0  0
    7.5183   -4.1672   -0.2469 C   0  0  0  0  0  0  0  0  0  0  0  0
    5.4398   -2.7139   -0.4368 C   0  0  1  0  0  0  0  0  0  0  0  0
    4.8004   -3.5908   -1.5302 C   0  0  0  0  0  0  0  0  0  0  0  0
    4.4169   -3.0843   -2.5824 O   0  0  0  0  0  0  0  0  0  0  0  0
    4.6393   -4.9209   -1.1735 N   0  0  0  0  0  0  0  0  0  0  0  0
    4.0000   -5.9604   -1.8948 C   0  0  0  0  0  0  0  0  0  0  0  0
    3.3461   -5.7491   -3.1070 C   0  0  0  0  0  0  0  0  0  0  0  0
    2.5590   -6.6648   -3.7164 N   0  0  0  0  0  0  0  0  0  0  0  0
    2.4640   -7.8711   -3.1214 C   0  0  0  0  0  0  0  0  0  0  0  0
    3.1796   -8.2525   -1.9883 C   0  0  0  0  0  0  0  0  0  0  0  0
    3.1293   -9.5753   -1.5112 C   0  0  0  0  0  0  0  0  0  0  0  0
    3.8762   -9.9623   -0.4020 C   0  0  0  0  0  0  0  0  0  0  0  0
    4.6560   -9.0246    0.2602 C   0  0  0  0  0  0  0  0  0  0  0  0
    4.7003   -7.7033   -0.1967 C   0  0  0  0  0  0  0  0  0  0  0  0
    3.9726   -7.2768   -1.3417 C   0  0  0  0  0  0  0  0  0  0  0  0
    4.2844   -2.1865    0.4233 C   0  0  0  0  0  0  0  0  0  0  0  0
    4.6936   -1.7486    1.7374 N   0  0  0  0  0  0  0  0  0  0  0  0
    5.5321   -2.5054    2.5116 C   0  0  0  0  0  0  0  0  0  0  0  0
    5.5429   -2.4042    3.7314 O   0  0  0  0  0  0  0  0  0  0  0  0
    9.0029   -5.5757    2.4756 H   0  0  0  0  0  0  0  0  0  0  0  0
    7.2908   -4.2100    3.6254 H   0  0  0  0  0  0  0  0  0  0  0  0
    7.6069   -4.1568   -1.3338 H   0  0  0  0  0  0  0  0  0  0  0  0
    5.9482   -1.8729   -0.9246 H   0  0  0  0  0  0  0  0  0  0  0  0
    4.9701   -5.1837   -0.2570 H   0  0  0  0  0  0  0  0  0  0  0  0
    3.4110   -4.8128   -3.6505 H   0  0  0  0  0  0  0  0  0  0  0  0
    1.7755   -8.5563   -3.6102 H   0  0  0  0  0  0  0  0  0  0  0  0
    2.5287  -10.3236   -2.0252 H   0  0  0  0  0  0  0  0  0  0  0  0
    3.8588  -10.9955   -0.0646 H   0  0  0  0  0  0  0  0  0  0  0  0
    5.2454   -9.3217    1.1246 H   0  0  0  0  0  0  0  0  0  0  0  0
    5.3553   -7.0275    0.3456 H   0  0  0  0  0  0  0  0  0  0  0  0
    3.5181   -2.9553    0.5838 H   0  0  0  0  0  0  0  0  0  0  0  0
    3.7926   -1.3428   -0.0726 H   0  0  0  0  0  0  0  0  0  0  0  0
    4.0606   -1.1661    2.2790 H   0  0  0  0  0  0  0  0  0  0  0  0
  1  2  1  0  0  0  0
  2  3  1  0  0  0  0
  2  7  2  0  0  0  0
  3  4  2  0  0  0  0
  3 26  1  0  0  0  0
  4  5  1  0  0  0  0
  4 27  1  0  0  0  0
  5  6  2  0  0  0  0
  5 24  1  0  0  0  0
  6  7  1  0  0  0  0
  6  8  1  0  0  0  0
  7 28  1  0  0  0  0
  8 22  1  0  0  0  0
  8  9  1  0  0  0  0
  8 29  1  6  0  0  0
  9 10  2  0  0  0  0
  9 11  1  0  0  0  0
 11 12  1  0  0  0  0
 11 30  1  0  0  0  0
 12 13  1  0  0  0  0
 12 21  2  0  0  0  0
 13 14  2  0  0  0  0
 13 31  1  0  0  0  0
 14 15  1  0  0  0  0
 15 16  2  0  0  0  0
 15 32  1  0  0  0  0
 16 17  1  0  0  0  0
 16 21  1  0  0  0  0
 17 18  2  0  0  0  0
 17 33  1  0  0  0  0
 18 19  1  0  0  0  0
 18 34  1  0  0  0  0
 19 20  2  0  0  0  0
 19 35  1  0  0  0  0
 20 21  1  0  0  0  0
 20 36  1  0  0  0  0
 22 23  1  0  0  0  0
 22 37  1  0  0  0  0
 22 38  1  0  0  0  0
 23 24  1  0  0  0  0
 23 39  1  0  0  0  0
 24 25  2  0  0  0  0
M  END
$$$$
