
 OpenBabel07202414173D

 37 40  0  0  1  0  0  0  0  0999 V2000
    1.1346   -0.2000   -0.0149 Cl  0  0  0  0  0  0  0  0  0  0  0  0
    2.8518   -0.1773    0.0623 C   0  0  0  0  0  0  0  0  0  0  0  0
    3.5304    1.0388    0.0120 C   0  0  0  0  0  0  0  0  0  0  0  0
    4.9241    1.0589    0.0889 C   0  0  0  0  0  0  0  0  0  0  0  0
    5.6364   -0.1410    0.1930 C   0  0  0  0  0  0  0  0  0  0  0  0
    4.9583   -1.3759    0.2136 C   0  0  0  0  0  0  0  0  0  0  0  0
    3.5543   -1.3816    0.1672 C   0  0  0  0  0  0  0  0  0  0  0  0
    5.7400   -2.6722    0.2294 C   0  0  3  0  0  0  0  0  0  0  0  0
    5.8921   -3.3533    1.5669 C   0  0  0  0  0  0  0  0  0  0  0  0
    6.0981   -4.5587    1.6417 O   0  0  0  0  0  0  0  0  0  0  0  0
    5.8084   -2.5605    2.7704 N   0  0  0  0  0  0  0  0  0  0  0  0
    5.9089   -3.1683    4.0224 C   0  0  0  0  0  0  0  0  0  0  0  0
    6.5727   -4.3314    4.3639 C   0  0  0  0  0  0  0  0  0  0  0  0
    6.2201   -4.7578    5.6174 N   0  0  0  0  0  0  0  0  0  0  0  0
    5.3587   -3.8649    6.0529 C   0  0  0  0  0  0  0  0  0  0  0  0
    4.5146   -3.8577    7.1936 C   0  0  0  0  0  0  0  0  0  0  0  0
    3.7368   -2.7865    7.4409 C   0  0  0  0  0  0  0  0  0  0  0  0
    3.7851   -1.6017    6.5913 C   0  0  0  0  0  0  0  0  0  0  0  0
    4.5280   -1.6301    5.4702 C   0  0  0  0  0  0  0  0  0  0  0  0
    5.2653   -2.7793    5.1825 N   0  0  0  0  0  0  0  0  0  0  0  0
    7.1464   -2.4725   -0.3318 C   0  0  0  0  0  0  0  0  0  0  0  0
    7.7759   -1.3004    0.2362 N   0  0  0  0  0  0  0  0  0  0  0  0
    7.1197   -0.0963    0.3114 C   0  0  0  0  0  0  0  0  0  0  0  0
    7.7182    0.9464    0.5236 O   0  0  0  0  0  0  0  0  0  0  0  0
    2.9833    1.9737   -0.0924 H   0  0  0  0  0  0  0  0  0  0  0  0
    5.4525    2.0111    0.0509 H   0  0  0  0  0  0  0  0  0  0  0  0
    2.9979   -2.3181    0.1795 H   0  0  0  0  0  0  0  0  0  0  0  0
    5.2152   -3.3876   -0.4189 H   0  0  0  0  0  0  0  0  0  0  0  0
    5.5223   -1.5908    2.7245 H   0  0  0  0  0  0  0  0  0  0  0  0
    7.2462   -4.9243    3.7576 H   0  0  0  0  0  0  0  0  0  0  0  0
    4.4707   -4.7488    7.8152 H   0  0  0  0  0  0  0  0  0  0  0  0
    3.0377   -2.7868    8.2702 H   0  0  0  0  0  0  0  0  0  0  0  0
    3.1941   -0.7342    6.8715 H   0  0  0  0  0  0  0  0  0  0  0  0
    4.5832   -0.7947    4.7852 H   0  0  0  0  0  0  0  0  0  0  0  0
    7.1031   -2.3158   -1.4158 H   0  0  0  0  0  0  0  0  0  0  0  0
    7.7996   -3.3300   -0.1372 H   0  0  0  0  0  0  0  0  0  0  0  0
    8.7885   -1.2086    0.2041 H   0  0  0  0  0  0  0  0  0  0  0  0
  1  2  1  0  0  0  0
  2  3  1  0  0  0  0
  2  7  2  0  0  0  0
  3  4  2  0  0  0  0
  3 25  1  0  0  0  0
  4  5  1  0  0  0  0
  4 26  1  0  0  0  0
  5  6  2  0  0  0  0
  5 23  1  0  0  0  0
  6  7  1  0  0  0  0
  6  8  1  0  0  0  0
  7 27  1  0  0  0  0
  8  9  1  0  0  0  0
  8 21  1  0  0  0  0
  8 28  1  0  0  0  0
  9 10  2  0  0  0  0
  9 11  1  0  0  0  0
 11 12  1  0  0  0  0
 11 29  1  0  0  0  0
 12 13  2  0  0  0  0
 12 20  1  0  0  0  0
 13 14  1  0  0  0  0
 13 30  1  0  0  0  0
 14 15  2  0  0  0  0
 15 16  1  0  0  0  0
 15 20  1  0  0  0  0
 16 17  2  0  0  0  0
 16 31  1  0  0  0  0
 17 18  1  0  0  0  0
 17 32  1  0  0  0  0
 18 19  2  0  0  0  0
 18 33  1  0  0  0  0
 19 20  1  0  0  0  0
 19 34  1  0  0  0  0
 21 22  1  0  0  0  0
 21 35  1  0  0  0  0
 21 36  1  0  0  0  0
 22 23  1  0  0  0  0
 22 37  1  0  0  0  0
 23 24  2  0  0  0  0
M  END
$$$$
