
 OpenBabel07202414133D

 59 62  0  0  0  0  0  0  0  0999 V2000
    7.2888   -4.1886   -2.9149 C   0  0  0  0  0  0  0  0  0  0  0  0
    7.0711   -5.6431   -2.5224 C   0  0  0  0  0  0  0  0  0  0  0  0
    6.1008   -5.7221   -1.4419 N   0  0  0  0  0  0  0  0  0  0  0  0
    6.3594   -5.5459   -0.1133 C   0  0  0  0  0  0  0  0  0  0  0  0
    5.1490   -5.2247    0.4578 C   0  0  0  0  0  0  0  0  0  0  0  0
    4.2021   -5.2690   -0.5953 C   0  0  0  0  0  0  0  0  0  0  0  0
    2.7600   -4.8140   -0.6269 C   0  0  0  0  0  0  0  0  0  0  0  0
    1.9900   -5.1208    0.5997 N   0  0  0  0  0  0  0  0  0  0  0  0
    1.7630   -4.1246    1.5721 C   0  0  0  0  0  0  0  0  0  0  0  0
    2.2854   -3.0132    1.4633 O   0  0  0  0  0  0  0  0  0  0  0  0
    0.7748   -4.4640    2.7302 C   0  0  0  0  0  0  0  0  0  0  0  0
    0.3707   -3.3809    3.7398 C   0  0  0  0  0  0  0  0  0  0  0  0
    0.2141   -2.0587    3.3178 C   0  0  0  0  0  0  0  0  0  0  0  0
   -0.2407   -1.0453    4.0841 N   0  0  0  0  0  0  0  0  0  0  0  0
   -0.5945   -1.3443    5.3456 C   0  0  0  0  0  0  0  0  0  0  0  0
   -0.5228   -2.6143    5.9013 C   0  0  0  0  0  0  0  0  0  0  0  0
   -0.9593   -2.8313    7.2277 C   0  0  0  0  0  0  0  0  0  0  0  0
   -0.8996   -4.0927    7.8044 C   0  0  0  0  0  0  0  0  0  0  0  0
   -0.3937   -5.1493    7.0599 C   0  0  0  0  0  0  0  0  0  0  0  0
    0.0313   -4.9485    5.7331 C   0  0  0  0  0  0  0  0  0  0  0  0
   -0.0212   -3.6770    5.0991 C   0  0  0  0  0  0  0  0  0  0  0  0
    1.5981   -6.4703    0.7567 C   0  0  0  0  0  0  0  0  0  0  0  0
    0.8034   -7.1053   -0.2034 C   0  0  0  0  0  0  0  0  0  0  0  0
    0.4578   -8.4506   -0.0504 C   0  0  0  0  0  0  0  0  0  0  0  0
    0.9236   -9.1794    1.0502 C   0  0  0  0  0  0  0  0  0  0  0  0
    0.5911  -10.6509    1.1985 C   0  0  0  0  0  0  0  0  0  0  0  0
    1.8670  -11.4983    1.1858 C   0  0  0  0  0  0  0  0  0  0  0  0
   -0.2273  -10.9084    2.4654 C   0  0  0  0  0  0  0  0  0  0  0  0
    1.7318   -8.5341    1.9967 C   0  0  0  0  0  0  0  0  0  0  0  0
    2.0720   -7.1959    1.8478 C   0  0  0  0  0  0  0  0  0  0  0  0
    4.7883   -5.6695   -1.7383 N   0  0  0  0  0  0  0  0  0  0  0  0
    7.9365   -4.1074   -3.7914 H   0  0  0  0  0  0  0  0  0  0  0  0
    7.7513   -3.6312   -2.0923 H   0  0  0  0  0  0  0  0  0  0  0  0
    6.3362   -3.6968   -3.1444 H   0  0  0  0  0  0  0  0  0  0  0  0
    8.0058   -6.1045   -2.1854 H   0  0  0  0  0  0  0  0  0  0  0  0
    6.6848   -6.2242   -3.3671 H   0  0  0  0  0  0  0  0  0  0  0  0
    7.3679   -5.5562    0.2785 H   0  0  0  0  0  0  0  0  0  0  0  0
    4.9859   -4.9117    1.4814 H   0  0  0  0  0  0  0  0  0  0  0  0
    2.2623   -5.2755   -1.4896 H   0  0  0  0  0  0  0  0  0  0  0  0
    2.7535   -3.7347   -0.8119 H   0  0  0  0  0  0  0  0  0  0  0  0
    1.2303   -5.2735    3.2975 H   0  0  0  0  0  0  0  0  0  0  0  0
   -0.1570   -4.8216    2.2728 H   0  0  0  0  0  0  0  0  0  0  0  0
    0.4423   -1.7515    2.3007 H   0  0  0  0  0  0  0  0  0  0  0  0
   -0.9581   -0.4997    5.9282 H   0  0  0  0  0  0  0  0  0  0  0  0
   -1.3596   -2.0069    7.8156 H   0  0  0  0  0  0  0  0  0  0  0  0
   -1.2446   -4.2444    8.8249 H   0  0  0  0  0  0  0  0  0  0  0  0
   -0.3312   -6.1366    7.5127 H   0  0  0  0  0  0  0  0  0  0  0  0
    0.4135   -5.8183    5.2054 H   0  0  0  0  0  0  0  0  0  0  0  0
    0.4210   -6.5621   -1.0639 H   0  0  0  0  0  0  0  0  0  0  0  0
   -0.1705   -8.9247   -0.8026 H   0  0  0  0  0  0  0  0  0  0  0  0
   -0.0203  -10.9661    0.3428 H   0  0  0  0  0  0  0  0  0  0  0  0
    2.5515  -11.2265    1.9970 H   0  0  0  0  0  0  0  0  0  0  0  0
    2.4087  -11.3679    0.2420 H   0  0  0  0  0  0  0  0  0  0  0  0
    1.6305  -12.5610    1.2964 H   0  0  0  0  0  0  0  0  0  0  0  0
    0.3172  -10.6227    3.3720 H   0  0  0  0  0  0  0  0  0  0  0  0
   -0.4818  -11.9698    2.5514 H   0  0  0  0  0  0  0  0  0  0  0  0
   -1.1628  -10.3380    2.4469 H   0  0  0  0  0  0  0  0  0  0  0  0
    2.1303   -9.0753    2.8502 H   0  0  0  0  0  0  0  0  0  0  0  0
    2.7571   -6.7440    2.5602 H   0  0  0  0  0  0  0  0  0  0  0  0
  1  2  1  0  0  0  0
  1 32  1  0  0  0  0
  1 33  1  0  0  0  0
  1 34  1  0  0  0  0
  2  3  1  0  0  0  0
  2 35  1  0  0  0  0
  2 36  1  0  0  0  0
  3  4  1  0  0  0  0
  3 31  1  0  0  0  0
  4  5  2  0  0  0  0
  4 37  1  0  0  0  0
  5  6  1  0  0  0  0
  5 38  1  0  0  0  0
  6  7  1  0  0  0  0
  6 31  2  0  0  0  0
  7  8  1  0  0  0  0
  7 39  1  0  0  0  0
  7 40  1  0  0  0  0
  8  9  1  0  0  0  0
  8 22  1  0  0  0  0
  9 10  2  0  0  0  0
  9 11  1  0  0  0  0
 11 12  1  0  0  0  0
 11 41  1  0  0  0  0
 11 42  1  0  0  0  0
 12 13  1  0  0  0  0
 12 21  2  0  0  0  0
 13 14  2  0  0  0  0
 13 43  1  0  0  0  0
 14 15  1  0  0  0  0
 15 16  2  0  0  0  0
 15 44  1  0  0  0  0
 16 17  1  0  0  0  0
 16 21  1  0  0  0  0
 17 18  2  0  0  0  0
 17 45  1  0  0  0  0
 18 19  1  0  0  0  0
 18 46  1  0  0  0  0
 19 20  2  0  0  0  0
 19 47  1  0  0  0  0
 20 21  1  0  0  0  0
 20 48  1  0  0  0  0
 22 23  1  0  0  0  0
 22 30  2  0  0  0  0
 23 24  2  0  0  0  0
 23 49  1  0  0  0  0
 24 25  1  0  0  0  0
 24 50  1  0  0  0  0
 25 26  1  0  0  0  0
 25 29  2  0  0  0  0
 26 27  1  0  0  0  0
 26 28  1  0  0  0  0
 26 51  1  0  0  0  0
 27 52  1  0  0  0  0
 27 53  1  0  0  0  0
 27 54  1  0  0  0  0
 28 55  1  0  0  0  0
 28 56  1  0  0  0  0
 28 57  1  0  0  0  0
 29 30  1  0  0  0  0
 29 58  1  0  0  0  0
 30 59  1  0  0  0  0
M  END
$$$$
