
 OpenBabel07202414193D

 47 50  0  0  0  0  0  0  0  0999 V2000
    2.9067   -0.8037   -0.7150 O   0  0  0  0  0  0  0  0  0  0  0  0
    2.3664    0.2364   -0.3283 C   0  0  0  0  0  0  0  0  0  0  0  0
    0.8445    0.2842   -0.2159 C   0  0  0  0  0  0  0  0  0  0  0  0
    0.1791    0.9742   -1.3922 C   0  0  0  0  0  0  0  0  0  0  0  0
    0.6863    0.7552   -2.6765 C   0  0  0  0  0  0  0  0  0  0  0  0
    0.2088    1.3265   -3.8005 N   0  0  0  0  0  0  0  0  0  0  0  0
   -0.8400    2.1595   -3.6490 C   0  0  0  0  0  0  0  0  0  0  0  0
   -1.4585    2.4415   -2.4334 C   0  0  0  0  0  0  0  0  0  0  0  0
   -2.5482    3.3275   -2.3623 C   0  0  0  0  0  0  0  0  0  0  0  0
   -3.1755    3.5868   -1.1482 C   0  0  0  0  0  0  0  0  0  0  0  0
   -2.7364    2.9437    0.0016 C   0  0  0  0  0  0  0  0  0  0  0  0
   -1.6469    2.0670   -0.0560 C   0  0  0  0  0  0  0  0  0  0  0  0
   -0.9614    1.8106   -1.2669 C   0  0  0  0  0  0  0  0  0  0  0  0
    3.0929    1.3884   -0.0528 N   0  0  0  0  0  0  0  0  0  0  0  0
    2.5644    2.5909    0.5885 C   0  0  0  0  0  0  0  0  0  0  0  0
    2.9749    3.8541   -0.1581 C   0  0  0  0  0  0  0  0  0  0  0  0
    4.4795    3.8885   -0.4250 C   0  0  0  0  0  0  0  0  0  0  0  0
    4.9900    2.5970   -1.1084 C   0  0  0  0  0  0  0  0  0  0  0  0
    4.4782    2.4775   -2.5657 C   0  0  0  0  0  0  0  0  0  0  0  0
    5.5839    3.0821   -3.4146 C   0  0  0  0  0  0  0  0  0  0  0  0
    6.8381    2.5601   -2.7425 C   0  0  0  0  0  0  0  0  0  0  0  0
    6.5346    2.6540   -1.2484 C   0  0  0  0  0  0  0  0  0  0  0  0
    4.5427    1.3830   -0.2670 C   0  0  0  0  0  0  0  0  0  0  0  0
    0.5882    0.7268    0.7487 H   0  0  0  0  0  0  0  0  0  0  0  0
    0.4750   -0.7479   -0.1686 H   0  0  0  0  0  0  0  0  0  0  0  0
    1.5302    0.0899   -2.8521 H   0  0  0  0  0  0  0  0  0  0  0  0
   -1.1910    2.6051   -4.5764 H   0  0  0  0  0  0  0  0  0  0  0  0
   -2.9147    3.8234   -3.2603 H   0  0  0  0  0  0  0  0  0  0  0  0
   -4.0130    4.2790   -1.1022 H   0  0  0  0  0  0  0  0  0  0  0  0
   -3.2383    3.1230    0.9494 H   0  0  0  0  0  0  0  0  0  0  0  0
   -1.3556    1.5747    0.8682 H   0  0  0  0  0  0  0  0  0  0  0  0
    2.9635    2.6087    1.6096 H   0  0  0  0  0  0  0  0  0  0  0  0
    1.4779    2.5714    0.6741 H   0  0  0  0  0  0  0  0  0  0  0  0
    2.6833    4.7366    0.4231 H   0  0  0  0  0  0  0  0  0  0  0  0
    2.4260    3.9106   -1.1050 H   0  0  0  0  0  0  0  0  0  0  0  0
    4.9983    4.0175    0.5361 H   0  0  0  0  0  0  0  0  0  0  0  0
    4.7203    4.7698   -1.0300 H   0  0  0  0  0  0  0  0  0  0  0  0
    3.5240    2.9785   -2.7476 H   0  0  0  0  0  0  0  0  0  0  0  0
    4.3487    1.4244   -2.8464 H   0  0  0  0  0  0  0  0  0  0  0  0
    5.5492    4.1767   -3.3721 H   0  0  0  0  0  0  0  0  0  0  0  0
    5.5151    2.7760   -4.4623 H   0  0  0  0  0  0  0  0  0  0  0  0
    7.7285    3.1319   -3.0221 H   0  0  0  0  0  0  0  0  0  0  0  0
    7.0070    1.5137   -3.0224 H   0  0  0  0  0  0  0  0  0  0  0  0
    6.9307    3.6012   -0.8625 H   0  0  0  0  0  0  0  0  0  0  0  0
    7.0424    1.8512   -0.7036 H   0  0  0  0  0  0  0  0  0  0  0  0
    5.0126    1.4083    0.7247 H   0  0  0  0  0  0  0  0  0  0  0  0
    4.8693    0.4520   -0.7449 H   0  0  0  0  0  0  0  0  0  0  0  0
  1  2  2  0  0  0  0
  2  3  1  0  0  0  0
  2 14  1  0  0  0  0
  3  4  1  0  0  0  0
  3 24  1  0  0  0  0
  3 25  1  0  0  0  0
  4  5  1  0  0  0  0
  4 13  2  0  0  0  0
  5  6  2  0  0  0  0
  5 26  1  0  0  0  0
  6  7  1  0  0  0  0
  7  8  2  0  0  0  0
  7 27  1  0  0  0  0
  8  9  1  0  0  0  0
  8 13  1  0  0  0  0
  9 10  2  0  0  0  0
  9 28  1  0  0  0  0
 10 11  1  0  0  0  0
 10 29  1  0  0  0  0
 11 12  2  0  0  0  0
 11 30  1  0  0  0  0
 12 13  1  0  0  0  0
 12 31  1  0  0  0  0
 14 15  1  0  0  0  0
 14 23  1  0  0  0  0
 15 16  1  0  0  0  0
 15 32  1  0  0  0  0
 15 33  1  0  0  0  0
 16 17  1  0  0  0  0
 16 34  1  0  0  0  0
 16 35  1  0  0  0  0
 17 18  1  0  0  0  0
 17 36  1  0  0  0  0
 17 37  1  0  0  0  0
 18 19  1  0  0  0  0
 18 22  1  0  0  0  0
 18 23  1  0  0  0  0
 19 20  1  0  0  0  0
 19 38  1  0  0  0  0
 19 39  1  0  0  0  0
 20 21  1  0  0  0  0
 20 40  1  0  0  0  0
 20 41  1  0  0  0  0
 21 22  1  0  0  0  0
 21 42  1  0  0  0  0
 21 43  1  0  0  0  0
 22 44  1  0  0  0  0
 22 45  1  0  0  0  0
 23 46  1  0  0  0  0
 23 47  1  0  0  0  0
M  END
$$$$
