
 OpenBabel07202414123D

 76 80  0  0  1  0  0  0  0  0999 V2000
    3.5966    1.0108   -0.3160 C   0  0  0  0  0  0  0  0  0  0  0  0
    2.3869    0.0990   -0.0112 C   0  0  0  0  0  0  0  0  0  0  0  0
    1.5302    0.7540    1.0850 C   0  0  0  0  0  0  0  0  0  0  0  0
    1.5579    0.0263   -1.3188 C   0  0  0  0  0  0  0  0  0  0  0  0
    2.8118   -1.2977    0.4627 C   0  0  0  0  0  0  0  0  0  0  0  0
    4.0509   -1.5557    1.0584 C   0  0  0  0  0  0  0  0  0  0  0  0
    4.4753   -2.8693    1.3443 C   0  0  0  0  0  0  0  0  0  0  0  0
    3.6716   -3.9873    1.0776 C   0  0  0  0  0  0  0  0  0  0  0  0
    4.1750   -5.3612    1.1648 N   0  0  0  0  0  0  0  0  0  0  0  0
    3.3959   -6.4773    0.5374 C   0  0  3  0  0  0  0  0  0  0  0  0
    2.4678   -7.1070    1.6052 C   0  0  0  0  0  0  0  0  0  0  0  0
    2.8919   -7.9713    2.3741 O   0  0  0  0  0  0  0  0  0  0  0  0
    1.1985   -6.5838    1.7430 N   0  0  0  0  0  0  0  0  0  0  0  0
    0.2823   -7.0461    2.7688 C   0  0  0  0  0  0  0  0  0  0  0  0
    0.8174   -6.8371    4.1886 C   0  0  0  0  0  0  0  0  0  0  0  0
   -0.1974   -7.2262    5.2287 C   0  0  0  0  0  0  0  0  0  0  0  0
   -1.0397   -6.2595    5.7961 C   0  0  0  0  0  0  0  0  0  0  0  0
   -1.9823   -6.6251    6.7612 C   0  0  0  0  0  0  0  0  0  0  0  0
   -2.0904   -7.9558    7.1589 C   0  0  0  0  0  0  0  0  0  0  0  0
   -1.2593   -8.9119    6.5897 C   0  0  0  0  0  0  0  0  0  0  0  0
   -1.3674  -10.1927    6.9699 F   0  0  0  0  0  0  0  0  0  0  0  0
   -0.3193   -8.5624    5.6295 C   0  0  0  0  0  0  0  0  0  0  0  0
    2.8396   -6.3208   -0.8777 C   0  0  0  0  0  0  0  0  0  0  0  0
    3.4418   -5.4906   -1.8347 C   0  0  0  0  0  0  0  0  0  0  0  0
    3.0145   -5.5205   -3.1604 C   0  0  0  0  0  0  0  0  0  0  0  0
    2.0007   -6.3953   -3.5038 C   0  0  0  0  0  0  0  0  0  0  0  0
    1.3821   -7.2019   -2.6190 N   0  0  0  0  0  0  0  0  0  0  0  0
    1.8276   -7.1635   -1.3433 C   0  0  0  0  0  0  0  0  0  0  0  0
    5.3081   -5.6619    2.0010 C   0  0  0  0  0  0  0  0  0  0  0  0
    5.7583   -4.8381    2.8044 O   0  0  0  0  0  0  0  0  0  0  0  0
    5.9777   -6.9716    1.9596 C   0  0  0  0  0  0  0  0  0  0  0  0
    6.8386   -7.4748    2.9275 C   0  0  0  0  0  0  0  0  0  0  0  0
    7.2727   -8.6633    2.4264 N   0  0  0  0  0  0  0  0  0  0  0  0
    8.2142   -9.6229    2.9433 C   0  0  3  0  0  0  0  0  0  0  0  0
    7.6143  -10.6513    3.8807 C   0  0  0  0  0  0  0  0  0  0  0  0
    8.6107  -11.0452    4.8404 O   0  0  0  0  0  0  0  0  0  0  0  0
    9.6712  -10.0835    4.8549 C   0  0  0  0  0  0  0  0  0  0  0  0
    9.2923   -9.0764    3.8077 C   0  0  0  0  0  0  0  0  0  0  0  0
    9.8697   -8.0114    3.6470 O   0  0  0  0  0  0  0  0  0  0  0  0
    6.6924   -8.9231    1.2400 N   0  0  0  0  0  0  0  0  0  0  0  0
    5.9576   -7.8732    0.9206 N   0  0  0  0  0  0  0  0  0  0  0  0
    2.3856   -3.6934    0.6162 C   0  0  0  0  0  0  0  0  0  0  0  0
    1.9633   -2.3933    0.3108 C   0  0  0  0  0  0  0  0  0  0  0  0
    3.2761    1.9619   -0.7570 H   0  0  0  0  0  0  0  0  0  0  0  0
    4.2835    0.5334   -1.0256 H   0  0  0  0  0  0  0  0  0  0  0  0
    4.1622    1.2592    0.5882 H   0  0  0  0  0  0  0  0  0  0  0  0
    1.1958    1.7525    0.7812 H   0  0  0  0  0  0  0  0  0  0  0  0
    2.0925    0.8588    2.0199 H   0  0  0  0  0  0  0  0  0  0  0  0
    0.6363    0.1585    1.3056 H   0  0  0  0  0  0  0  0  0  0  0  0
    1.3519    1.0269   -1.7162 H   0  0  0  0  0  0  0  0  0  0  0  0
    0.5830   -0.4507   -1.1691 H   0  0  0  0  0  0  0  0  0  0  0  0
    2.0902   -0.5370   -2.0951 H   0  0  0  0  0  0  0  0  0  0  0  0
    4.7448   -0.7487    1.2835 H   0  0  0  0  0  0  0  0  0  0  0  0
    5.4877   -2.9585    1.7271 H   0  0  0  0  0  0  0  0  0  0  0  0
    4.0811   -7.2900    0.3284 H   0  0  0  0  0  0  0  0  0  0  0  0
    0.7815   -6.0912    0.9664 H   0  0  0  0  0  0  0  0  0  0  0  0
    0.0595   -8.1019    2.5743 H   0  0  0  0  0  0  0  0  0  0  0  0
   -0.6458   -6.4795    2.6294 H   0  0  0  0  0  0  0  0  0  0  0  0
    1.1170   -5.7907    4.3250 H   0  0  0  0  0  0  0  0  0  0  0  0
    1.7258   -7.4230    4.3632 H   0  0  0  0  0  0  0  0  0  0  0  0
   -0.9605   -5.2160    5.4961 H   0  0  0  0  0  0  0  0  0  0  0  0
   -2.6248   -5.8696    7.2046 H   0  0  0  0  0  0  0  0  0  0  0  0
   -2.8135   -8.2530    7.9112 H   0  0  0  0  0  0  0  0  0  0  0  0
    0.3176   -9.3360    5.2052 H   0  0  0  0  0  0  0  0  0  0  0  0
    4.2636   -4.8292   -1.5671 H   0  0  0  0  0  0  0  0  0  0  0  0
    3.4836   -4.8956   -3.9123 H   0  0  0  0  0  0  0  0  0  0  0  0
    1.6634   -6.4892   -4.5320 H   0  0  0  0  0  0  0  0  0  0  0  0
    1.3361   -7.8885   -0.6984 H   0  0  0  0  0  0  0  0  0  0  0  0
    7.1734   -7.0583    3.8658 H   0  0  0  0  0  0  0  0  0  0  0  0
    8.7088  -10.1155    2.0974 H   0  0  0  0  0  0  0  0  0  0  0  0
    7.2990  -11.5478    3.3369 H   0  0  0  0  0  0  0  0  0  0  0  0
    6.7433  -10.2754    4.4292 H   0  0  0  0  0  0  0  0  0  0  0  0
   10.5991  -10.5872    4.5688 H   0  0  0  0  0  0  0  0  0  0  0  0
    9.7519   -9.6252    5.8423 H   0  0  0  0  0  0  0  0  0  0  0  0
    1.6525   -4.4549    0.4170 H   0  0  0  0  0  0  0  0  0  0  0  0
    0.9587   -2.2753   -0.0877 H   0  0  0  0  0  0  0  0  0  0  0  0
  1  2  1  0  0  0  0
  1 44  1  0  0  0  0
  1 45  1  0  0  0  0
  1 46  1  0  0  0  0
  2  3  1  0  0  0  0
  2  4  1  0  0  0  0
  2  5  1  0  0  0  0
  3 47  1  0  0  0  0
  3 48  1  0  0  0  0
  3 49  1  0  0  0  0
  4 50  1  0  0  0  0
  4 51  1  0  0  0  0
  4 52  1  0  0  0  0
  5  6  1  0  0  0  0
  5 43  2  0  0  0  0
  6  7  2  0  0  0  0
  6 53  1  0  0  0  0
  7  8  1  0  0  0  0
  7 54  1  0  0  0  0
  8  9  1  0  0  0  0
  8 42  2  0  0  0  0
  9 10  1  0  0  0  0
  9 29  1  0  0  0  0
 10 11  1  0  0  0  0
 10 23  1  0  0  0  0
 10 55  1  0  0  0  0
 11 12  2  0  0  0  0
 11 13  1  0  0  0  0
 13 14  1  0  0  0  0
 13 56  1  0  0  0  0
 14 15  1  0  0  0  0
 14 57  1  0  0  0  0
 14 58  1  0  0  0  0
 15 16  1  0  0  0  0
 15 59  1  0  0  0  0
 15 60  1  0  0  0  0
 16 17  1  0  0  0  0
 16 22  2  0  0  0  0
 17 18  2  0  0  0  0
 17 61  1  0  0  0  0
 18 19  1  0  0  0  0
 18 62  1  0  0  0  0
 19 20  2  0  0  0  0
 19 63  1  0  0  0  0
 20 21  1  0  0  0  0
 20 22  1  0  0  0  0
 22 64  1  0  0  0  0
 23 24  1  0  0  0  0
 23 28  2  0  0  0  0
 24 25  2  0  0  0  0
 24 65  1  0  0  0  0
 25 26  1  0  0  0  0
 25 66  1  0  0  0  0
 26 27  2  0  0  0  0
 26 67  1  0  0  0  0
 27 28  1  0  0  0  0
 28 68  1  0  0  0  0
 29 30  2  0  0  0  0
 29 31  1  0  0  0  0
 31 32  2  0  0  0  0
 31 41  1  0  0  0  0
 32 33  1  0  0  0  0
 32 69  1  0  0  0  0
 33 34  1  0  0  0  0
 33 40  1  0  0  0  0
 34 35  1  0  0  0  0
 34 38  1  0  0  0  0
 34 70  1  0  0  0  0
 35 36  1  0  0  0  0
 35 71  1  0  0  0  0
 35 72  1  0  0  0  0
 36 37  1  0  0  0  0
 37 38  1  0  0  0  0
 37 73  1  0  0  0  0
 37 74  1  0  0  0  0
 38 39  2  0  0  0  0
 40 41  2  0  0  0  0
 42 43  1  0  0  0  0
 42 75  1  0  0  0  0
 43 76  1  0  0  0  0
M  END
$$$$
