
 OpenBabel07202414173D

 40 43  0  0  1  0  0  0  0  0999 V2000
    1.0350   -0.0621   -0.0058 Cl  0  0  0  0  0  0  0  0  0  0  0  0
    2.7522   -0.1364    0.0434 C   0  0  0  0  0  0  0  0  0  0  0  0
    3.4998    1.0232   -0.1279 C   0  0  0  0  0  0  0  0  0  0  0  0
    4.8958    0.9605   -0.0914 C   0  0  0  0  0  0  0  0  0  0  0  0
    5.5565   -0.2492    0.1509 C   0  0  0  0  0  0  0  0  0  0  0  0
    4.7913   -1.4197    0.3092 C   0  0  0  0  0  0  0  0  0  0  0  0
    3.3881   -1.3561    0.2594 C   0  0  0  0  0  0  0  0  0  0  0  0
    5.4764   -2.7372    0.6375 C   0  0  3  0  0  0  0  0  0  0  0  0
    5.3994   -3.1164    2.1320 C   0  0  0  0  0  0  0  0  0  0  0  0
    5.4402   -4.2980    2.4673 O   0  0  0  0  0  0  0  0  0  0  0  0
    5.3613   -2.0414    3.0016 N   0  0  0  0  0  0  0  0  0  0  0  0
    5.1299   -2.0528    4.3985 C   0  0  0  0  0  0  0  0  0  0  0  0
    4.8949   -3.2185    5.1243 C   0  0  0  0  0  0  0  0  0  0  0  0
    4.5075   -3.2501    6.4217 N   0  0  0  0  0  0  0  0  0  0  0  0
    4.3767   -2.0569    7.0394 C   0  0  0  0  0  0  0  0  0  0  0  0
    4.6800   -0.8308    6.4623 C   0  0  0  0  0  0  0  0  0  0  0  0
    4.6228    0.3639    7.2087 C   0  0  0  0  0  0  0  0  0  0  0  0
    4.9565    1.5826    6.6316 C   0  0  0  0  0  0  0  0  0  0  0  0
    5.3233    1.6356    5.2950 C   0  0  0  0  0  0  0  0  0  0  0  0
    5.3727    0.4586    4.5387 C   0  0  0  0  0  0  0  0  0  0  0  0
    5.0649   -0.8079    5.0977 C   0  0  0  0  0  0  0  0  0  0  0  0
    6.9341   -2.7336    0.1688 C   0  0  0  0  0  0  0  0  0  0  0  0
    7.6428   -1.4641    0.6135 C   0  0  0  0  0  0  0  0  0  0  0  0
    6.9462   -0.2875    0.1187 N   0  0  0  0  0  0  0  0  0  0  0  0
    3.0077    1.9766   -0.2996 H   0  0  0  0  0  0  0  0  0  0  0  0
    5.4654    1.8724   -0.2525 H   0  0  0  0  0  0  0  0  0  0  0  0
    2.7932   -2.2576    0.3968 H   0  0  0  0  0  0  0  0  0  0  0  0
    4.9484   -3.5312    0.0916 H   0  0  0  0  0  0  0  0  0  0  0  0
    5.3690   -1.1295    2.5733 H   0  0  0  0  0  0  0  0  0  0  0  0
    4.9976   -4.2069    4.6887 H   0  0  0  0  0  0  0  0  0  0  0  0
    4.0188   -2.1252    8.0623 H   0  0  0  0  0  0  0  0  0  0  0  0
    4.3348    0.3397    8.2597 H   0  0  0  0  0  0  0  0  0  0  0  0
    4.9340    2.4948    7.2274 H   0  0  0  0  0  0  0  0  0  0  0  0
    5.5854    2.5851    4.8384 H   0  0  0  0  0  0  0  0  0  0  0  0
    5.6848    0.5623    3.5039 H   0  0  0  0  0  0  0  0  0  0  0  0
    6.9585   -2.7917   -0.9280 H   0  0  0  0  0  0  0  0  0  0  0  0
    7.4700   -3.6115    0.5482 H   0  0  0  0  0  0  0  0  0  0  0  0
    8.6636   -1.4591    0.2162 H   0  0  0  0  0  0  0  0  0  0  0  0
    7.7277   -1.4146    1.7044 H   0  0  0  0  0  0  0  0  0  0  0  0
    7.4140    0.5976    0.2929 H   0  0  0  0  0  0  0  0  0  0  0  0
  1  2  1  0  0  0  0
  2  3  1  0  0  0  0
  2  7  2  0  0  0  0
  3  4  2  0  0  0  0
  3 25  1  0  0  0  0
  4  5  1  0  0  0  0
  4 26  1  0  0  0  0
  5  6  2  0  0  0  0
  5 24  1  0  0  0  0
  6  7  1  0  0  0  0
  6  8  1  0  0  0  0
  7 27  1  0  0  0  0
  8  9  1  0  0  0  0
  8 22  1  0  0  0  0
  8 28  1  0  0  0  0
  9 10  2  0  0  0  0
  9 11  1  0  0  0  0
 11 12  1  0  0  0  0
 11 29  1  0  0  0  0
 12 13  1  0  0  0  0
 12 21  2  0  0  0  0
 13 14  2  0  0  0  0
 13 30  1  0  0  0  0
 14 15  1  0  0  0  0
 15 16  2  0  0  0  0
 15 31  1  0  0  0  0
 16 17  1  0  0  0  0
 16 21  1  0  0  0  0
 17 18  2  0  0  0  0
 17 32  1  0  0  0  0
 18 19  1  0  0  0  0
 18 33  1  0  0  0  0
 19 20  2  0  0  0  0
 19 34  1  0  0  0  0
 20 21  1  0  0  0  0
 20 35  1  0  0  0  0
 22 23  1  0  0  0  0
 22 36  1  0  0  0  0
 22 37  1  0  0  0  0
 23 24  1  0  0  0  0
 23 38  1  0  0  0  0
 23 39  1  0  0  0  0
 24 40  1  0  0  0  0
M  END
$$$$
