
 OpenBabel07202414203D

 30 31  0  0  1  0  0  0  0  0999 V2000
    4.1614    1.6455    3.2824 C   0  0  0  0  0  0  0  0  0  0  0  0
    3.1642    1.9941    2.3682 C   0  0  0  0  0  0  0  0  0  0  0  0
    3.4870    2.2935    1.0351 C   0  0  0  0  0  0  0  0  0  0  0  0
    4.8309    2.2332    0.6365 C   0  0  0  0  0  0  0  0  0  0  0  0
    5.8218    1.8788    1.5534 C   0  0  0  0  0  0  0  0  0  0  0  0
    5.4930    1.5838    2.8742 C   0  0  0  0  0  0  0  0  0  0  0  0
    7.4631    1.7882    1.0423 Cl  0  0  0  0  0  0  0  0  0  0  0  0
    2.4051    2.6062    0.0292 C   0  0  0  0  0  0  0  0  0  0  0  0
    1.5283    3.7805    0.4164 C   0  0  0  0  0  0  0  0  0  0  0  0
    0.4875    3.6360    1.0545 O   0  0  0  0  0  0  0  0  0  0  0  0
    1.9909    5.0127    0.0154 N   0  0  0  0  0  0  0  0  0  0  0  0
    1.2068    6.2094    0.2408 C   0  0  1  0  0  0  0  0  0  0  0  0
    1.0290    6.5695    1.7169 C   0  0  0  0  0  0  0  0  0  0  0  0
    0.7938    8.0675    1.6815 C   0  0  0  0  0  0  0  0  0  0  0  0
    1.5834    8.5065    0.5681 N   0  0  0  0  0  0  0  0  0  0  0  0
    1.8825    7.4697   -0.2967 C   0  0  0  0  0  0  0  0  0  0  0  0
    2.5498    7.5629   -1.3145 O   0  0  0  0  0  0  0  0  0  0  0  0
    3.8968    1.4115    4.3108 H   0  0  0  0  0  0  0  0  0  0  0  0
    2.1270    2.0200    2.7020 H   0  0  0  0  0  0  0  0  0  0  0  0
    5.1088    2.4486   -0.3928 H   0  0  0  0  0  0  0  0  0  0  0  0
    6.2642    1.2996    3.5848 H   0  0  0  0  0  0  0  0  0  0  0  0
    1.7611    1.7249   -0.0851 H   0  0  0  0  0  0  0  0  0  0  0  0
    2.8343    2.7968   -0.9614 H   0  0  0  0  0  0  0  0  0  0  0  0
    2.7874    5.0843   -0.6098 H   0  0  0  0  0  0  0  0  0  0  0  0
    0.2371    6.1000   -0.2597 H   0  0  0  0  0  0  0  0  0  0  0  0
    1.9481    6.3467    2.2750 H   0  0  0  0  0  0  0  0  0  0  0  0
    0.2078    6.0294    2.1969 H   0  0  0  0  0  0  0  0  0  0  0  0
    1.1205    8.5672    2.5967 H   0  0  0  0  0  0  0  0  0  0  0  0
   -0.2535    8.3121    1.4790 H   0  0  0  0  0  0  0  0  0  0  0  0
    1.8852    9.4570    0.3880 H   0  0  0  0  0  0  0  0  0  0  0  0
  1  2  1  0  0  0  0
  1  6  2  0  0  0  0
  1 18  1  0  0  0  0
  2  3  2  0  0  0  0
  2 19  1  0  0  0  0
  3  4  1  0  0  0  0
  3  8  1  0  0  0  0
  4  5  2  0  0  0  0
  4 20  1  0  0  0  0
  5  6  1  0  0  0  0
  5  7  1  0  0  0  0
  6 21  1  0  0  0  0
  8  9  1  0  0  0  0
  8 22  1  0  0  0  0
  8 23  1  0  0  0  0
  9 10  2  0  0  0  0
  9 11  1  0  0  0  0
 11 12  1  0  0  0  0
 11 24  1  0  0  0  0
 12 13  1  0  0  0  0
 12 16  1  0  0  0  0
 12 25  1  6  0  0  0
 13 14  1  0  0  0  0
 13 26  1  0  0  0  0
 13 27  1  0  0  0  0
 14 15  1  0  0  0  0
 14 28  1  0  0  0  0
 14 29  1  0  0  0  0
 15 16  1  0  0  0  0
 15 30  1  0  0  0  0
 16 17  2  0  0  0  0
M  END
$$$$
