
 OpenBabel07202414173D

 42 46  0  0  1  0  0  0  0  0999 V2000
    0.9477    0.3916    0.0228 Cl  0  0  0  0  0  0  0  0  0  0  0  0
    2.6601    0.2362    0.0335 C   0  0  0  0  0  0  0  0  0  0  0  0
    3.4605    1.3704    0.0704 C   0  0  0  0  0  0  0  0  0  0  0  0
    4.8457    1.2269    0.0952 C   0  0  0  0  0  0  0  0  0  0  0  0
    5.4275   -0.0454    0.1135 C   0  0  0  0  0  0  0  0  0  0  0  0
    4.6342   -1.1980    0.0765 C   0  0  0  0  0  0  0  0  0  0  0  0
    3.2337   -1.0370    0.0283 C   0  0  0  0  0  0  0  0  0  0  0  0
    5.2711   -2.5748    0.2051 C   0  0  3  0  0  0  0  0  0  0  0  0
    6.7838   -2.4905   -0.0312 C   0  0  0  0  0  0  0  0  0  0  0  0
    7.3945   -1.2608    0.6057 C   0  0  0  0  0  0  0  0  0  0  0  0
    6.7930   -0.0544    0.1426 O   0  0  0  0  0  0  0  0  0  0  0  0
    4.7148   -3.6348   -0.7503 C   0  0  0  0  0  0  0  0  0  0  0  0
    4.0724   -4.6423    0.1463 C   0  0  0  0  0  0  0  0  0  0  0  0
    3.7777   -5.7575   -0.2525 O   0  0  0  0  0  0  0  0  0  0  0  0
    3.9072   -4.0840    1.3898 N   0  0  0  0  0  0  0  0  0  0  0  0
    2.8351   -4.4580    2.2677 C   0  0  0  0  0  0  0  0  0  0  0  0
    2.2541   -5.7249    2.1023 C   0  0  0  0  0  0  0  0  0  0  0  0
    1.0470   -6.1108    2.5649 N   0  0  0  0  0  0  0  0  0  0  0  0
    0.3741   -5.2021    3.2846 C   0  0  0  0  0  0  0  0  0  0  0  0
    0.8761   -3.9585    3.6487 C   0  0  0  0  0  0  0  0  0  0  0  0
    0.1026   -3.1447    4.4945 C   0  0  0  0  0  0  0  0  0  0  0  0
    0.5505   -1.8901    4.8800 C   0  0  0  0  0  0  0  0  0  0  0  0
    1.7584   -1.4266    4.3866 C   0  0  0  0  0  0  0  0  0  0  0  0
    2.5263   -2.2258    3.5245 C   0  0  0  0  0  0  0  0  0  0  0  0
    2.1401   -3.5426    3.1403 C   0  0  0  0  0  0  0  0  0  0  0  0
    4.8852   -3.1368    1.5853 C   0  0  0  0  0  0  0  0  0  0  0  0
    5.4062   -2.8108    2.6344 O   0  0  0  0  0  0  0  0  0  0  0  0
    3.0154    2.3617    0.0843 H   0  0  0  0  0  0  0  0  0  0  0  0
    5.4808    2.1091    0.1251 H   0  0  0  0  0  0  0  0  0  0  0  0
    2.5676   -1.8979    0.0156 H   0  0  0  0  0  0  0  0  0  0  0  0
    6.9656   -2.4169   -1.1145 H   0  0  0  0  0  0  0  0  0  0  0  0
    7.2937   -3.3933    0.3225 H   0  0  0  0  0  0  0  0  0  0  0  0
    8.4513   -1.2090    0.3176 H   0  0  0  0  0  0  0  0  0  0  0  0
    7.3629   -1.2947    1.6991 H   0  0  0  0  0  0  0  0  0  0  0  0
    5.4916   -4.1433   -1.3322 H   0  0  0  0  0  0  0  0  0  0  0  0
    3.9570   -3.2558   -1.4427 H   0  0  0  0  0  0  0  0  0  0  0  0
    2.7538   -6.5208    1.5566 H   0  0  0  0  0  0  0  0  0  0  0  0
   -0.6266   -5.5171    3.5714 H   0  0  0  0  0  0  0  0  0  0  0  0
   -0.8569   -3.4942    4.8731 H   0  0  0  0  0  0  0  0  0  0  0  0
   -0.0419   -1.2809    5.5577 H   0  0  0  0  0  0  0  0  0  0  0  0
    2.1162   -0.4406    4.6743 H   0  0  0  0  0  0  0  0  0  0  0  0
    3.4544   -1.7809    3.1879 H   0  0  0  0  0  0  0  0  0  0  0  0
  1  2  1  0  0  0  0
  2  3  1  0  0  0  0
  2  7  2  0  0  0  0
  3  4  2  0  0  0  0
  3 28  1  0  0  0  0
  4  5  1  0  0  0  0
  4 29  1  0  0  0  0
  5  6  2  0  0  0  0
  5 11  1  0  0  0  0
  6  7  1  0  0  0  0
  6  8  1  0  0  0  0
  7 30  1  0  0  0  0
  8  9  1  0  0  0  0
  8 12  1  0  0  0  0
  8 26  1  0  0  0  0
  9 10  1  0  0  0  0
  9 31  1  0  0  0  0
  9 32  1  0  0  0  0
 10 11  1  0  0  0  0
 10 33  1  0  0  0  0
 10 34  1  0  0  0  0
 12 13  1  0  0  0  0
 12 35  1  0  0  0  0
 12 36  1  0  0  0  0
 13 14  2  0  0  0  0
 13 15  1  0  0  0  0
 15 16  1  0  0  0  0
 15 26  1  0  0  0  0
 16 17  1  0  0  0  0
 16 25  2  0  0  0  0
 17 18  2  0  0  0  0
 17 37  1  0  0  0  0
 18 19  1  0  0  0  0
 19 20  2  0  0  0  0
 19 38  1  0  0  0  0
 20 21  1  0  0  0  0
 20 25  1  0  0  0  0
 21 22  2  0  0  0  0
 21 39  1  0  0  0  0
 22 23  1  0  0  0  0
 22 40  1  0  0  0  0
 23 24  2  0  0  0  0
 23 41  1  0  0  0  0
 24 25  1  0  0  0  0
 24 42  1  0  0  0  0
 26 27  2  0  0  0  0
M  END
$$$$
