
 OpenBabel07202414133D

 52 55  0  0  1  0  0  0  0  0999 V2000
    1.2200   -3.7515    3.4343 C   0  0  0  0  0  0  0  0  0  0  0  0
    2.5693   -3.3165    3.7797 N   0  0  0  0  0  0  0  0  0  0  0  0
    2.9108   -3.3594    5.2038 C   0  0  0  0  0  0  0  0  0  0  0  0
    3.1772   -2.2986    3.0253 C   0  0  0  0  0  0  0  0  0  0  0  0
    2.5751   -1.7433    1.8832 C   0  0  0  0  0  0  0  0  0  0  0  0
    3.1807   -0.7119    1.1601 C   0  0  0  0  0  0  0  0  0  0  0  0
    4.4171   -0.2130    1.5580 C   0  0  0  0  0  0  0  0  0  0  0  0
    5.0723   -0.7539    2.6731 C   0  0  0  0  0  0  0  0  0  0  0  0
    6.4549   -0.2559    3.0142 C   0  0  2  0  0  0  0  0  0  0  0  0
    7.4761   -1.0478    2.1805 C   0  0  0  0  0  0  0  0  0  0  0  0
    8.8031   -0.7477    2.8466 C   0  0  0  0  0  0  0  0  0  0  0  0
    8.4459   -0.5399    4.3069 C   0  0  0  0  0  0  0  0  0  0  0  0
    6.9936   -0.3777    4.3752 N   0  0  0  0  0  0  0  0  0  0  0  0
    6.3345    0.0383    5.5447 C   0  0  0  0  0  0  0  0  0  0  0  0
    5.1404    0.3110    5.5896 O   0  0  0  0  0  0  0  0  0  0  0  0
    7.2666    0.1752    6.7420 C   0  0  0  0  0  0  0  0  0  0  0  0
    6.8135    0.4082    8.1642 C   0  0  0  0  0  0  0  0  0  0  0  0
    5.5094    0.2143    8.6008 C   0  0  0  0  0  0  0  0  0  0  0  0
    5.1261    0.2881    9.8989 N   0  0  0  0  0  0  0  0  0  0  0  0
    6.0791    0.6181   10.7978 C   0  0  0  0  0  0  0  0  0  0  0  0
    7.4078    0.9073   10.4878 C   0  0  0  0  0  0  0  0  0  0  0  0
    8.3339    1.3326   11.4623 C   0  0  0  0  0  0  0  0  0  0  0  0
    9.6541    1.6183   11.1181 C   0  0  0  0  0  0  0  0  0  0  0  0
   10.0765    1.4317    9.8114 C   0  0  0  0  0  0  0  0  0  0  0  0
    9.1664    0.9985    8.8439 C   0  0  0  0  0  0  0  0  0  0  0  0
    7.7981    0.7658    9.1406 C   0  0  0  0  0  0  0  0  0  0  0  0
    4.4517   -1.8012    3.3680 C   0  0  0  0  0  0  0  0  0  0  0  0
    0.8591   -4.5153    4.1314 H   0  0  0  0  0  0  0  0  0  0  0  0
    1.2087   -4.2125    2.4401 H   0  0  0  0  0  0  0  0  0  0  0  0
    0.5081   -2.9186    3.4602 H   0  0  0  0  0  0  0  0  0  0  0  0
    2.2406   -4.0258    5.7581 H   0  0  0  0  0  0  0  0  0  0  0  0
    2.8402   -2.3678    5.6656 H   0  0  0  0  0  0  0  0  0  0  0  0
    3.9219   -3.7572    5.3452 H   0  0  0  0  0  0  0  0  0  0  0  0
    1.6093   -2.0915    1.5324 H   0  0  0  0  0  0  0  0  0  0  0  0
    2.6794   -0.2996    0.2880 H   0  0  0  0  0  0  0  0  0  0  0  0
    4.8735    0.5873    0.9780 H   0  0  0  0  0  0  0  0  0  0  0  0
    6.5172    0.8149    2.7747 H   0  0  0  0  0  0  0  0  0  0  0  0
    7.4713   -0.7722    1.1216 H   0  0  0  0  0  0  0  0  0  0  0  0
    7.2828   -2.1278    2.2436 H   0  0  0  0  0  0  0  0  0  0  0  0
    9.2414    0.1660    2.4294 H   0  0  0  0  0  0  0  0  0  0  0  0
    9.5307   -1.5551    2.7179 H   0  0  0  0  0  0  0  0  0  0  0  0
    8.9385    0.3643    4.6810 H   0  0  0  0  0  0  0  0  0  0  0  0
    8.7459   -1.3915    4.9238 H   0  0  0  0  0  0  0  0  0  0  0  0
    7.8885    1.0382    6.4771 H   0  0  0  0  0  0  0  0  0  0  0  0
    7.8780   -0.7328    6.7903 H   0  0  0  0  0  0  0  0  0  0  0  0
    4.6945   -0.0191    7.9248 H   0  0  0  0  0  0  0  0  0  0  0  0
    5.7350    0.6415   11.8344 H   0  0  0  0  0  0  0  0  0  0  0  0
    8.0211    1.4673   12.4955 H   0  0  0  0  0  0  0  0  0  0  0  0
   10.3504    1.9833   11.8690 H   0  0  0  0  0  0  0  0  0  0  0  0
   11.1087    1.6318    9.5345 H   0  0  0  0  0  0  0  0  0  0  0  0
    9.5523    0.8632    7.8370 H   0  0  0  0  0  0  0  0  0  0  0  0
    4.9909   -2.2367    4.2040 H   0  0  0  0  0  0  0  0  0  0  0  0
  1  2  1  0  0  0  0
  1 28  1  0  0  0  0
  1 29  1  0  0  0  0
  1 30  1  0  0  0  0
  2  3  1  0  0  0  0
  2  4  1  0  0  0  0
  3 31  1  0  0  0  0
  3 32  1  0  0  0  0
  3 33  1  0  0  0  0
  4  5  1  0  0  0  0
  4 27  2  0  0  0  0
  5  6  2  0  0  0  0
  5 34  1  0  0  0  0
  6  7  1  0  0  0  0
  6 35  1  0  0  0  0
  7  8  2  0  0  0  0
  7 36  1  0  0  0  0
  8  9  1  0  0  0  0
  8 27  1  0  0  0  0
  9 10  1  0  0  0  0
  9 13  1  0  0  0  0
  9 37  1  6  0  0  0
 10 11  1  0  0  0  0
 10 38  1  0  0  0  0
 10 39  1  0  0  0  0
 11 12  1  0  0  0  0
 11 40  1  0  0  0  0
 11 41  1  0  0  0  0
 12 13  1  0  0  0  0
 12 42  1  0  0  0  0
 12 43  1  0  0  0  0
 13 14  1  0  0  0  0
 14 15  2  0  0  0  0
 14 16  1  0  0  0  0
 16 17  1  0  0  0  0
 16 44  1  0  0  0  0
 16 45  1  0  0  0  0
 17 18  1  0  0  0  0
 17 26  2  0  0  0  0
 18 19  2  0  0  0  0
 18 46  1  0  0  0  0
 19 20  1  0  0  0  0
 20 21  2  0  0  0  0
 20 47  1  0  0  0  0
 21 22  1  0  0  0  0
 21 26  1  0  0  0  0
 22 23  2  0  0  0  0
 22 48  1  0  0  0  0
 23 24  1  0  0  0  0
 23 49  1  0  0  0  0
 24 25  2  0  0  0  0
 24 50  1  0  0  0  0
 25 26  1  0  0  0  0
 25 51  1  0  0  0  0
 27 52  1  0  0  0  0
M  END
$$$$
