
 OpenBabel07202414153D

 58 61  0  0  1  0  0  0  0  0999 V2000
    1.5388   -0.4566   -1.8196 C   0  0  0  0  0  0  0  0  0  0  0  0
    2.5250   -1.3734   -2.2862 O   0  0  0  0  0  0  0  0  0  0  0  0
    3.2331   -2.0058   -1.3010 C   0  0  0  0  0  0  0  0  0  0  0  0
    2.7693   -2.2212   -0.0086 C   0  0  0  0  0  0  0  0  0  0  0  0
    3.4873   -3.0531    0.8604 C   0  0  0  0  0  0  0  0  0  0  0  0
    4.7394   -3.5987    0.5043 C   0  0  0  0  0  0  0  0  0  0  0  0
    5.3960   -4.5221    1.4113 N   0  0  0  0  0  0  0  0  0  0  0  0
    6.7874   -4.2646    1.9507 C   0  0  3  0  0  0  0  0  0  0  0  0
    7.9687   -4.8140    1.0572 C   0  0  0  0  0  0  0  0  0  0  0  0
    8.1153   -4.4608   -0.1186 O   0  0  0  0  0  0  0  0  0  0  0  0
    8.9108   -5.6109    1.6899 N   0  0  0  0  0  0  0  0  0  0  0  0
   10.1310   -6.0161    0.9869 C   0  0  0  0  0  0  0  0  0  0  0  0
   10.6278   -7.3924    1.4353 C   0  0  0  0  0  0  0  0  0  0  0  0
   11.8901   -7.8315    0.7272 C   0  0  0  0  0  0  0  0  0  0  0  0
   11.8440   -8.5497   -0.4769 C   0  0  0  0  0  0  0  0  0  0  0  0
   13.0246   -8.9252   -1.1337 C   0  0  0  0  0  0  0  0  0  0  0  0
   14.2621   -8.5843   -0.5904 C   0  0  0  0  0  0  0  0  0  0  0  0
   14.3094   -7.8882    0.6085 C   0  0  0  0  0  0  0  0  0  0  0  0
   15.4964   -7.5681    1.1404 F   0  0  0  0  0  0  0  0  0  0  0  0
   13.1411   -7.5108    1.2682 C   0  0  0  0  0  0  0  0  0  0  0  0
    7.1470   -2.8194    2.3508 C   0  0  0  0  0  0  0  0  0  0  0  0
    8.4264   -2.5091    2.8568 C   0  0  0  0  0  0  0  0  0  0  0  0
    8.8136   -1.1749    3.0092 C   0  0  0  0  0  0  0  0  0  0  0  0
    7.9017   -0.1887    2.7105 C   0  0  0  0  0  0  0  0  0  0  0  0
    6.6418   -0.4329    2.3689 N   0  0  0  0  0  0  0  0  0  0  0  0
    6.2971   -1.7397    2.2127 C   0  0  0  0  0  0  0  0  0  0  0  0
    4.6438   -5.7102    1.6786 C   0  0  0  0  0  0  0  0  0  0  0  0
    3.5256   -5.8861    1.1958 O   0  0  0  0  0  0  0  0  0  0  0  0
    5.1703   -6.7883    2.5326 C   0  0  0  0  0  0  0  0  0  0  0  0
    4.4744   -7.9548    2.8028 C   0  0  0  0  0  0  0  0  0  0  0  0
    5.2079   -8.7140    3.6559 O   0  0  0  0  0  0  0  0  0  0  0  0
    6.3312   -7.9807    3.8583 C   0  0  0  0  0  0  0  0  0  0  0  0
    6.3868   -6.8466    3.2032 N   0  0  0  0  0  0  0  0  0  0  0  0
    5.2702   -3.2277   -0.7310 C   0  0  0  0  0  0  0  0  0  0  0  0
    4.4918   -2.5008   -1.6512 C   0  0  0  0  0  0  0  0  0  0  0  0
    1.0505   -0.0002   -2.6847 H   0  0  0  0  0  0  0  0  0  0  0  0
    2.0221    0.3347   -1.2384 H   0  0  0  0  0  0  0  0  0  0  0  0
    0.7529   -0.9491   -1.2358 H   0  0  0  0  0  0  0  0  0  0  0  0
    1.8379   -1.7943    0.3438 H   0  0  0  0  0  0  0  0  0  0  0  0
    3.0667   -3.2139    1.8519 H   0  0  0  0  0  0  0  0  0  0  0  0
    6.8431   -4.7778    2.9097 H   0  0  0  0  0  0  0  0  0  0  0  0
    8.9548   -5.5589    2.7002 H   0  0  0  0  0  0  0  0  0  0  0  0
   10.8873   -5.2434    1.1883 H   0  0  0  0  0  0  0  0  0  0  0  0
    9.9464   -6.0105   -0.0927 H   0  0  0  0  0  0  0  0  0  0  0  0
    9.8422   -8.1407    1.2826 H   0  0  0  0  0  0  0  0  0  0  0  0
   10.8162   -7.3794    2.5165 H   0  0  0  0  0  0  0  0  0  0  0  0
   10.8895   -8.8351   -0.9191 H   0  0  0  0  0  0  0  0  0  0  0  0
   12.9777   -9.4777   -2.0695 H   0  0  0  0  0  0  0  0  0  0  0  0
   15.1855   -8.8554   -1.0940 H   0  0  0  0  0  0  0  0  0  0  0  0
   13.2268   -6.9707    2.2059 H   0  0  0  0  0  0  0  0  0  0  0  0
    9.1535   -3.2769    3.1010 H   0  0  0  0  0  0  0  0  0  0  0  0
    9.8200   -0.9154    3.3235 H   0  0  0  0  0  0  0  0  0  0  0  0
    8.1625    0.8642    2.7466 H   0  0  0  0  0  0  0  0  0  0  0  0
    5.2611   -1.8380    1.9537 H   0  0  0  0  0  0  0  0  0  0  0  0
    3.5156   -8.3511    2.4990 H   0  0  0  0  0  0  0  0  0  0  0  0
    7.0579   -8.4034    4.5414 H   0  0  0  0  0  0  0  0  0  0  0  0
    6.2602   -3.5335   -1.0413 H   0  0  0  0  0  0  0  0  0  0  0  0
    4.8718   -2.3303   -2.6555 H   0  0  0  0  0  0  0  0  0  0  0  0
  1  2  1  0  0  0  0
  1 36  1  0  0  0  0
  1 37  1  0  0  0  0
  1 38  1  0  0  0  0
  2  3  1  0  0  0  0
  3  4  1  0  0  0  0
  3 35  2  0  0  0  0
  4  5  2  0  0  0  0
  4 39  1  0  0  0  0
  5  6  1  0  0  0  0
  5 40  1  0  0  0  0
  6  7  1  0  0  0  0
  6 34  2  0  0  0  0
  7  8  1  0  0  0  0
  7 27  1  0  0  0  0
  8  9  1  0  0  0  0
  8 21  1  0  0  0  0
  8 41  1  0  0  0  0
  9 10  2  0  0  0  0
  9 11  1  0  0  0  0
 11 12  1  0  0  0  0
 11 42  1  0  0  0  0
 12 13  1  0  0  0  0
 12 43  1  0  0  0  0
 12 44  1  0  0  0  0
 13 14  1  0  0  0  0
 13 45  1  0  0  0  0
 13 46  1  0  0  0  0
 14 15  1  0  0  0  0
 14 20  2  0  0  0  0
 15 16  2  0  0  0  0
 15 47  1  0  0  0  0
 16 17  1  0  0  0  0
 16 48  1  0  0  0  0
 17 18  2  0  0  0  0
 17 49  1  0  0  0  0
 18 19  1  0  0  0  0
 18 20  1  0  0  0  0
 20 50  1  0  0  0  0
 21 22  1  0  0  0  0
 21 26  2  0  0  0  0
 22 23  2  0  0  0  0
 22 51  1  0  0  0  0
 23 24  1  0  0  0  0
 23 52  1  0  0  0  0
 24 25  2  0  0  0  0
 24 53  1  0  0  0  0
 25 26  1  0  0  0  0
 26 54  1  0  0  0  0
 27 28  2  0  0  0  0
 27 29  1  0  0  0  0
 29 30  2  0  0  0  0
 29 33  1  0  0  0  0
 30 31  1  0  0  0  0
 30 55  1  0  0  0  0
 31 32  1  0  0  0  0
 32 33  2  0  0  0  0
 32 56  1  0  0  0  0
 34 35  1  0  0  0  0
 34 57  1  0  0  0  0
 35 58  1  0  0  0  0
M  END
$$$$
