
 OpenBabel07202414133D

 47 49  0  0  0  0  0  0  0  0999 V2000
    0.6175    0.1776    0.0860 C   0  0  0  0  0  0  0  0  0  0  0  0
    1.6497    0.2896   -1.0354 C   0  0  0  0  0  0  0  0  0  0  0  0
    2.5694    1.4967   -1.0029 C   0  0  0  0  0  0  0  0  0  0  0  0
    2.0524    2.7081   -0.4950 C   0  0  0  0  0  0  0  0  0  0  0  0
    2.8261    3.8575   -0.4120 C   0  0  0  0  0  0  0  0  0  0  0  0
    2.3041    4.9699    0.1037 F   0  0  0  0  0  0  0  0  0  0  0  0
    4.1263    3.8565   -0.8646 C   0  0  0  0  0  0  0  0  0  0  0  0
    4.6486    2.6918   -1.4241 C   0  0  0  0  0  0  0  0  0  0  0  0
    3.9109    1.4783   -1.5157 C   0  0  0  0  0  0  0  0  0  0  0  0
    4.5984    0.2931   -2.1270 C   0  0  0  0  0  0  0  0  0  0  0  0
    3.9310   -0.6642   -2.9082 C   0  0  0  0  0  0  0  0  0  0  0  0
    4.5947   -1.7793   -3.4253 C   0  0  0  0  0  0  0  0  0  0  0  0
    3.6991   -2.9970   -4.2503 Cl  0  0  0  0  0  0  0  0  0  0  0  0
    5.9696   -1.9193   -3.2813 C   0  0  0  0  0  0  0  0  0  0  0  0
    6.6948   -0.9480   -2.5899 C   0  0  0  0  0  0  0  0  0  0  0  0
    8.1988   -1.0522   -2.4814 C   0  0  0  0  0  0  0  0  0  0  0  0
    8.9840    0.1323   -3.0281 C   0  0  0  0  0  0  0  0  0  0  0  0
    9.8945    0.6384   -2.3752 O   0  0  0  0  0  0  0  0  0  0  0  0
    8.6110    0.5480   -4.2963 N   0  0  0  0  0  0  0  0  0  0  0  0
    9.2872    1.5891   -4.9753 C   0  0  0  0  0  0  0  0  0  0  0  0
   10.6810    1.6468   -5.0488 C   0  0  0  0  0  0  0  0  0  0  0  0
   11.3753    2.5925   -5.7244 N   0  0  0  0  0  0  0  0  0  0  0  0
   10.6442    3.5480   -6.3289 C   0  0  0  0  0  0  0  0  0  0  0  0
    9.2615    3.5956   -6.3036 C   0  0  0  0  0  0  0  0  0  0  0  0
    8.5539    2.5998   -5.6180 C   0  0  0  0  0  0  0  0  0  0  0  0
    7.0610    2.6859   -5.5050 C   0  0  0  0  0  0  0  0  0  0  0  0
    5.9954    0.1086   -1.9768 C   0  0  0  0  0  0  0  0  0  0  0  0
    0.0001   -0.7142   -0.0654 H   0  0  0  0  0  0  0  0  0  0  0  0
   -0.0648    1.0307    0.1226 H   0  0  0  0  0  0  0  0  0  0  0  0
    1.1144    0.0878    1.0574 H   0  0  0  0  0  0  0  0  0  0  0  0
    1.1164    0.2952   -1.9953 H   0  0  0  0  0  0  0  0  0  0  0  0
    2.2359   -0.6322   -0.9710 H   0  0  0  0  0  0  0  0  0  0  0  0
    1.0299    2.7902   -0.1454 H   0  0  0  0  0  0  0  0  0  0  0  0
    4.7265    4.7605   -0.7930 H   0  0  0  0  0  0  0  0  0  0  0  0
    5.6688    2.7522   -1.8044 H   0  0  0  0  0  0  0  0  0  0  0  0
    2.8714   -0.5665   -3.1231 H   0  0  0  0  0  0  0  0  0  0  0  0
    6.4710   -2.7862   -3.7086 H   0  0  0  0  0  0  0  0  0  0  0  0
    8.5641   -1.9419   -3.0115 H   0  0  0  0  0  0  0  0  0  0  0  0
    8.4613   -1.1803   -1.4243 H   0  0  0  0  0  0  0  0  0  0  0  0
    7.6516    0.3676   -4.5635 H   0  0  0  0  0  0  0  0  0  0  0  0
   11.2992    0.8818   -4.5846 H   0  0  0  0  0  0  0  0  0  0  0  0
   11.2221    4.3117   -6.8484 H   0  0  0  0  0  0  0  0  0  0  0  0
    8.7433    4.4174   -6.7941 H   0  0  0  0  0  0  0  0  0  0  0  0
    6.6775    3.6174   -5.9372 H   0  0  0  0  0  0  0  0  0  0  0  0
    6.7628    2.6769   -4.4504 H   0  0  0  0  0  0  0  0  0  0  0  0
    6.5847    1.8496   -6.0241 H   0  0  0  0  0  0  0  0  0  0  0  0
    6.5691    0.8049   -1.3636 H   0  0  0  0  0  0  0  0  0  0  0  0
  1  2  1  0  0  0  0
  1 28  1  0  0  0  0
  1 29  1  0  0  0  0
  1 30  1  0  0  0  0
  2  3  1  0  0  0  0
  2 31  1  0  0  0  0
  2 32  1  0  0  0  0
  3  4  1  0  0  0  0
  3  9  2  0  0  0  0
  4  5  2  0  0  0  0
  4 33  1  0  0  0  0
  5  6  1  0  0  0  0
  5  7  1  0  0  0  0
  7  8  2  0  0  0  0
  7 34  1  0  0  0  0
  8  9  1  0  0  0  0
  8 35  1  0  0  0  0
  9 10  1  0  0  0  0
 10 11  1  0  0  0  0
 10 27  2  0  0  0  0
 11 12  2  0  0  0  0
 11 36  1  0  0  0  0
 12 13  1  0  0  0  0
 12 14  1  0  0  0  0
 14 15  2  0  0  0  0
 14 37  1  0  0  0  0
 15 16  1  0  0  0  0
 15 27  1  0  0  0  0
 16 17  1  0  0  0  0
 16 38  1  0  0  0  0
 16 39  1  0  0  0  0
 17 18  2  0  0  0  0
 17 19  1  0  0  0  0
 19 20  1  0  0  0  0
 19 40  1  0  0  0  0
 20 21  1  0  0  0  0
 20 25  2  0  0  0  0
 21 22  2  0  0  0  0
 21 41  1  0  0  0  0
 22 23  1  0  0  0  0
 23 24  2  0  0  0  0
 23 42  1  0  0  0  0
 24 25  1  0  0  0  0
 24 43  1  0  0  0  0
 25 26  1  0  0  0  0
 26 44  1  0  0  0  0
 26 45  1  0  0  0  0
 26 46  1  0  0  0  0
 27 47  1  0  0  0  0
M  END
$$$$
