
 OpenBabel07202414173D

 66 71  0  0  1  0  0  0  0  0999 V2000
    0.9591    0.2455    0.0843 Cl  0  0  0  0  0  0  0  0  0  0  0  0
    2.6734    0.1020    0.1328 C   0  0  0  0  0  0  0  0  0  0  0  0
    3.4653    1.2348   -0.0025 C   0  0  0  0  0  0  0  0  0  0  0  0
    4.8510    1.1050    0.0415 C   0  0  0  0  0  0  0  0  0  0  0  0
    5.4415   -0.1519    0.2164 C   0  0  0  0  0  0  0  0  0  0  0  0
    4.6601   -1.3122    0.3269 C   0  0  0  0  0  0  0  0  0  0  0  0
    3.2577   -1.1553    0.3033 C   0  0  0  0  0  0  0  0  0  0  0  0
    5.3096   -2.7091    0.5098 C   0  0  3  0  0  0  0  0  0  0  0  0
    4.6305   -3.7068   -0.5015 C   0  0  0  0  0  0  0  0  0  0  0  0
    5.2034   -5.1194   -0.5505 C   0  0  0  0  0  0  0  0  0  0  0  0
    6.3498   -5.3278   -0.1519 O   0  0  0  0  0  0  0  0  0  0  0  0
    4.3976   -6.1547   -0.9928 N   0  0  0  0  0  0  0  0  0  0  0  0
    4.8303   -7.5435   -0.7872 C   0  0  0  0  0  0  0  0  0  0  0  0
    4.9550   -8.3305   -2.0849 C   0  0  0  0  0  0  0  0  0  0  0  0
    3.7432   -8.1591   -2.9923 C   0  0  0  0  0  0  0  0  0  0  0  0
    3.3781   -6.6822   -3.1540 C   0  0  0  0  0  0  0  0  0  0  0  0
    3.1687   -5.9805   -1.7966 C   0  0  3  0  0  0  0  0  0  0  0  0
    1.9418   -6.4586   -1.0396 C   0  0  0  0  0  0  0  0  0  0  0  0
    1.7239   -6.5104    0.3631 C   0  0  0  0  0  0  0  0  0  0  0  0
    0.4707   -7.0519    0.5165 C   0  0  0  0  0  0  0  0  0  0  0  0
   -0.0025   -7.2631   -0.7421 N   0  0  0  0  0  0  0  0  0  0  0  0
    0.8578   -6.8952   -1.7028 N   0  0  0  0  0  0  0  0  0  0  0  0
    5.0692   -3.2020    1.9980 C   0  0  0  0  0  0  0  0  0  0  0  0
    4.3862   -2.5519    2.7861 O   0  0  0  0  0  0  0  0  0  0  0  0
    5.6694   -4.4046    2.3139 N   0  0  0  0  0  0  0  0  0  0  0  0
    5.7543   -5.0399    3.5840 C   0  0  0  0  0  0  0  0  0  0  0  0
    5.2974   -4.4535    4.7630 C   0  0  0  0  0  0  0  0  0  0  0  0
    5.5502   -4.9360    6.0038 N   0  0  0  0  0  0  0  0  0  0  0  0
    6.2417   -6.0916    6.0762 C   0  0  0  0  0  0  0  0  0  0  0  0
    6.6260   -6.8519    4.9746 C   0  0  0  0  0  0  0  0  0  0  0  0
    7.2197   -8.1215    5.1294 C   0  0  0  0  0  0  0  0  0  0  0  0
    7.5631   -8.8921    4.0209 C   0  0  0  0  0  0  0  0  0  0  0  0
    7.3555   -8.3854    2.7496 C   0  0  0  0  0  0  0  0  0  0  0  0
    6.7927   -7.1171    2.5944 C   0  0  0  0  0  0  0  0  0  0  0  0
    6.3904   -6.3148    3.6904 C   0  0  0  0  0  0  0  0  0  0  0  0
    6.8225   -2.5659    0.2205 C   0  0  0  0  0  0  0  0  0  0  0  0
    7.3901   -1.2940    0.8240 C   0  0  0  0  0  0  0  0  0  0  0  0
    6.8075   -0.1384    0.2377 O   0  0  0  0  0  0  0  0  0  0  0  0
    3.0160    2.2153   -0.1301 H   0  0  0  0  0  0  0  0  0  0  0  0
    5.4790    1.9887   -0.0470 H   0  0  0  0  0  0  0  0  0  0  0  0
    2.6008   -2.0090    0.4479 H   0  0  0  0  0  0  0  0  0  0  0  0
    4.7076   -3.3000   -1.5185 H   0  0  0  0  0  0  0  0  0  0  0  0
    3.5706   -3.8011   -0.2477 H   0  0  0  0  0  0  0  0  0  0  0  0
    4.1044   -8.0230   -0.1214 H   0  0  0  0  0  0  0  0  0  0  0  0
    5.7912   -7.5829   -0.2698 H   0  0  0  0  0  0  0  0  0  0  0  0
    5.0956   -9.3931   -1.8528 H   0  0  0  0  0  0  0  0  0  0  0  0
    5.8530   -8.0001   -2.6198 H   0  0  0  0  0  0  0  0  0  0  0  0
    2.8938   -8.7167   -2.5810 H   0  0  0  0  0  0  0  0  0  0  0  0
    3.9592   -8.5959   -3.9737 H   0  0  0  0  0  0  0  0  0  0  0  0
    2.4900   -6.5892   -3.7888 H   0  0  0  0  0  0  0  0  0  0  0  0
    4.1974   -6.1805   -3.6864 H   0  0  0  0  0  0  0  0  0  0  0  0
    3.0142   -4.9176   -2.0107 H   0  0  0  0  0  0  0  0  0  0  0  0
    2.4019   -6.2210    1.1542 H   0  0  0  0  0  0  0  0  0  0  0  0
   -0.1135   -7.3032    1.3903 H   0  0  0  0  0  0  0  0  0  0  0  0
   -0.8964   -7.6562   -1.0211 H   0  0  0  0  0  0  0  0  0  0  0  0
    6.1979   -4.8577    1.5731 H   0  0  0  0  0  0  0  0  0  0  0  0
    4.7143   -3.5391    4.7748 H   0  0  0  0  0  0  0  0  0  0  0  0
    6.4774   -6.4098    7.0888 H   0  0  0  0  0  0  0  0  0  0  0  0
    7.3891   -8.5322    6.1225 H   0  0  0  0  0  0  0  0  0  0  0  0
    7.9849   -9.8853    4.1483 H   0  0  0  0  0  0  0  0  0  0  0  0
    7.6199   -8.9694    1.8712 H   0  0  0  0  0  0  0  0  0  0  0  0
    6.6486   -6.7837    1.5779 H   0  0  0  0  0  0  0  0  0  0  0  0
    6.9826   -2.5343   -0.8652 H   0  0  0  0  0  0  0  0  0  0  0  0
    7.4129   -3.3974    0.6139 H   0  0  0  0  0  0  0  0  0  0  0  0
    8.4647   -1.2467    0.6108 H   0  0  0  0  0  0  0  0  0  0  0  0
    7.2790   -1.2584    1.9143 H   0  0  0  0  0  0  0  0  0  0  0  0
  1  2  1  0  0  0  0
  2  3  1  0  0  0  0
  2  7  2  0  0  0  0
  3  4  2  0  0  0  0
  3 39  1  0  0  0  0
  4  5  1  0  0  0  0
  4 40  1  0  0  0  0
  5  6  2  0  0  0  0
  5 38  1  0  0  0  0
  6  7  1  0  0  0  0
  6  8  1  0  0  0  0
  7 41  1  0  0  0  0
  8  9  1  0  0  0  0
  8 23  1  0  0  0  0
  8 36  1  0  0  0  0
  9 10  1  0  0  0  0
  9 42  1  0  0  0  0
  9 43  1  0  0  0  0
 10 11  2  0  0  0  0
 10 12  1  0  0  0  0
 12 13  1  0  0  0  0
 12 17  1  0  0  0  0
 13 14  1  0  0  0  0
 13 44  1  0  0  0  0
 13 45  1  0  0  0  0
 14 15  1  0  0  0  0
 14 46  1  0  0  0  0
 14 47  1  0  0  0  0
 15 16  1  0  0  0  0
 15 48  1  0  0  0  0
 15 49  1  0  0  0  0
 16 17  1  0  0  0  0
 16 50  1  0  0  0  0
 16 51  1  0  0  0  0
 17 18  1  0  0  0  0
 17 52  1  0  0  0  0
 18 19  1  0  0  0  0
 18 22  2  0  0  0  0
 19 20  2  0  0  0  0
 19 53  1  0  0  0  0
 20 21  1  0  0  0  0
 20 54  1  0  0  0  0
 21 22  1  0  0  0  0
 21 55  1  0  0  0  0
 23 24  2  0  0  0  0
 23 25  1  0  0  0  0
 25 26  1  0  0  0  0
 25 56  1  0  0  0  0
 26 27  1  0  0  0  0
 26 35  2  0  0  0  0
 27 28  2  0  0  0  0
 27 57  1  0  0  0  0
 28 29  1  0  0  0  0
 29 30  2  0  0  0  0
 29 58  1  0  0  0  0
 30 31  1  0  0  0  0
 30 35  1  0  0  0  0
 31 32  2  0  0  0  0
 31 59  1  0  0  0  0
 32 33  1  0  0  0  0
 32 60  1  0  0  0  0
 33 34  2  0  0  0  0
 33 61  1  0  0  0  0
 34 35  1  0  0  0  0
 34 62  1  0  0  0  0
 36 37  1  0  0  0  0
 36 63  1  0  0  0  0
 36 64  1  0  0  0  0
 37 38  1  0  0  0  0
 37 65  1  0  0  0  0
 37 66  1  0  0  0  0
M  END
$$$$
