
 OpenBabel07202414133D

 51 54  0  0  0  0  0  0  0  0999 V2000
    3.5493    1.3627    0.2248 C   0  0  0  0  0  0  0  0  0  0  0  0
    4.4675    0.2901   -0.3586 C   0  0  0  0  0  0  0  0  0  0  0  0
    4.4453   -1.0103    0.4550 C   0  0  0  0  0  0  0  0  0  0  0  0
    3.7586   -1.1121    1.4666 O   0  0  0  0  0  0  0  0  0  0  0  0
    5.2685   -2.0048   -0.0686 N   0  0  0  0  0  0  0  0  0  0  0  0
    5.5079   -3.3055    0.4679 C   0  0  0  0  0  0  0  0  0  0  0  0
    4.9131   -3.8065    1.6308 C   0  0  0  0  0  0  0  0  0  0  0  0
    5.2620   -5.0751    2.1547 C   0  0  0  0  0  0  0  0  0  0  0  0
    6.2155   -5.8761    1.5199 C   0  0  0  0  0  0  0  0  0  0  0  0
    6.7672   -5.4093    0.3216 C   0  0  0  0  0  0  0  0  0  0  0  0
    6.4182   -4.1410   -0.1959 C   0  0  0  0  0  0  0  0  0  0  0  0
    6.7302   -7.0784    2.1268 N   0  0  0  0  0  0  0  0  0  0  0  0
    7.8119   -6.9100    3.1251 C   0  0  0  0  0  0  0  0  0  0  0  0
    8.7594   -5.7451    2.9536 C   0  0  0  0  0  0  0  0  0  0  0  0
    8.6114   -4.4646    3.5978 C   0  0  0  0  0  0  0  0  0  0  0  0
    9.6896   -3.6284    3.4031 C   0  0  0  0  0  0  0  0  0  0  0  0
   10.8804   -4.3480    2.4153 S   0  0  0  0  0  0  0  0  0  0  0  0
    9.9593   -5.7844    2.2596 C   0  0  0  0  0  0  0  0  0  0  0  0
    5.9351   -8.2688    2.0831 C   0  0  0  0  0  0  0  0  0  0  0  0
    4.9222   -8.3335    1.3817 O   0  0  0  0  0  0  0  0  0  0  0  0
    6.4799   -9.5080    2.8058 C   0  0  0  0  0  0  0  0  0  0  0  0
    5.6550  -10.6620    3.2123 N   0  0  0  0  0  0  0  0  0  0  0  0
    4.3255  -11.0265    3.1522 C   0  0  0  0  0  0  0  0  0  0  0  0
    3.1572  -10.5085    2.5803 C   0  0  0  0  0  0  0  0  0  0  0  0
    1.9527  -11.1996    2.7923 C   0  0  0  0  0  0  0  0  0  0  0  0
    1.8981  -12.3757    3.5433 C   0  0  0  0  0  0  0  0  0  0  0  0
    3.0650  -12.9039    4.0888 C   0  0  0  0  0  0  0  0  0  0  0  0
    4.2723  -12.2186    3.8853 C   0  0  0  0  0  0  0  0  0  0  0  0
    5.5340  -12.5470    4.3128 N   0  0  0  0  0  0  0  0  0  0  0  0
    6.3605  -11.6091    3.8942 N   0  0  0  0  0  0  0  0  0  0  0  0
    3.5490    2.2632   -0.3996 H   0  0  0  0  0  0  0  0  0  0  0  0
    3.8713    1.6537    1.2309 H   0  0  0  0  0  0  0  0  0  0  0  0
    2.5166    1.0048    0.2975 H   0  0  0  0  0  0  0  0  0  0  0  0
    5.4919    0.6788   -0.3869 H   0  0  0  0  0  0  0  0  0  0  0  0
    4.1531    0.0760   -1.3860 H   0  0  0  0  0  0  0  0  0  0  0  0
    5.7877   -1.7672   -0.9059 H   0  0  0  0  0  0  0  0  0  0  0  0
    4.1747   -3.2240    2.1743 H   0  0  0  0  0  0  0  0  0  0  0  0
    4.7901   -5.4020    3.0766 H   0  0  0  0  0  0  0  0  0  0  0  0
    7.4946   -6.0144   -0.2131 H   0  0  0  0  0  0  0  0  0  0  0  0
    6.8926   -3.8175   -1.1192 H   0  0  0  0  0  0  0  0  0  0  0  0
    8.4220   -7.8209    3.1182 H   0  0  0  0  0  0  0  0  0  0  0  0
    7.3377   -6.8512    4.1127 H   0  0  0  0  0  0  0  0  0  0  0  0
    7.7630   -4.1812    4.2086 H   0  0  0  0  0  0  0  0  0  0  0  0
    9.8410   -2.6336    3.8045 H   0  0  0  0  0  0  0  0  0  0  0  0
   10.3756   -6.6040    1.6905 H   0  0  0  0  0  0  0  0  0  0  0  0
    6.9498   -9.2041    3.7473 H   0  0  0  0  0  0  0  0  0  0  0  0
    7.2516   -9.9414    2.1543 H   0  0  0  0  0  0  0  0  0  0  0  0
    3.1478   -9.6117    1.9757 H   0  0  0  0  0  0  0  0  0  0  0  0
    1.0300  -10.8120    2.3610 H   0  0  0  0  0  0  0  0  0  0  0  0
    0.9493  -12.8841    3.6980 H   0  0  0  0  0  0  0  0  0  0  0  0
    3.0442  -13.8261    4.6611 H   0  0  0  0  0  0  0  0  0  0  0  0
  1  2  1  0  0  0  0
  1 31  1  0  0  0  0
  1 32  1  0  0  0  0
  1 33  1  0  0  0  0
  2  3  1  0  0  0  0
  2 34  1  0  0  0  0
  2 35  1  0  0  0  0
  3  4  2  0  0  0  0
  3  5  1  0  0  0  0
  5  6  1  0  0  0  0
  5 36  1  0  0  0  0
  6  7  1  0  0  0  0
  6 11  2  0  0  0  0
  7  8  2  0  0  0  0
  7 37  1  0  0  0  0
  8  9  1  0  0  0  0
  8 38  1  0  0  0  0
  9 10  2  0  0  0  0
  9 12  1  0  0  0  0
 10 11  1  0  0  0  0
 10 39  1  0  0  0  0
 11 40  1  0  0  0  0
 12 13  1  0  0  0  0
 12 19  1  0  0  0  0
 13 14  1  0  0  0  0
 13 41  1  0  0  0  0
 13 42  1  0  0  0  0
 14 15  1  0  0  0  0
 14 18  2  0  0  0  0
 15 16  2  0  0  0  0
 15 43  1  0  0  0  0
 16 17  1  0  0  0  0
 16 44  1  0  0  0  0
 17 18  1  0  0  0  0
 18 45  1  0  0  0  0
 19 20  2  0  0  0  0
 19 21  1  0  0  0  0
 21 22  1  0  0  0  0
 21 46  1  0  0  0  0
 21 47  1  0  0  0  0
 22 23  1  0  0  0  0
 22 30  1  0  0  0  0
 23 24  1  0  0  0  0
 23 28  2  0  0  0  0
 24 25  2  0  0  0  0
 24 48  1  0  0  0  0
 25 26  1  0  0  0  0
 25 49  1  0  0  0  0
 26 27  2  0  0  0  0
 26 50  1  0  0  0  0
 27 28  1  0  0  0  0
 27 51  1  0  0  0  0
 28 29  1  0  0  0  0
 29 30  2  0  0  0  0
M  END
$$$$
