
 OpenBabel07202414173D

 68 73  0  0  1  0  0  0  0  0999 V2000
    1.1363    0.1421   -0.0335 Cl  0  0  0  0  0  0  0  0  0  0  0  0
    2.8507    0.0234    0.0325 C   0  0  0  0  0  0  0  0  0  0  0  0
    3.6284    1.1672   -0.1104 C   0  0  0  0  0  0  0  0  0  0  0  0
    5.0154    1.0571   -0.0528 C   0  0  0  0  0  0  0  0  0  0  0  0
    5.6280   -0.1879    0.1280 C   0  0  0  0  0  0  0  0  0  0  0  0
    4.8596   -1.3538    0.2427 C   0  0  0  0  0  0  0  0  0  0  0  0
    3.4542   -1.2222    0.2163 C   0  0  0  0  0  0  0  0  0  0  0  0
    5.5228   -2.7226    0.4456 C   0  0  3  0  0  0  0  0  0  0  0  0
    4.9095   -3.7743   -0.5605 C   0  0  0  0  0  0  0  0  0  0  0  0
    5.5518   -5.1075   -0.5486 N   0  0  0  0  0  0  0  0  0  0  0  0
    4.9655   -5.9871   -1.5688 C   0  0  0  0  0  0  0  0  0  0  0  0
    5.5178   -7.3793   -1.5135 C   0  0  0  0  0  0  0  0  0  0  0  0
    4.7371   -8.4894   -1.2876 C   0  0  0  0  0  0  0  0  0  0  0  0
    5.2024   -9.7567   -1.2671 N   0  0  0  0  0  0  0  0  0  0  0  0
    6.5145   -9.9536   -1.4850 C   0  0  0  0  0  0  0  0  0  0  0  0
    7.0114  -11.2251   -1.4480 N   0  0  0  0  0  0  0  0  0  0  0  0
    6.1589  -12.3950   -1.2667 C   0  0  0  0  0  0  0  0  0  0  0  0
    6.7330  -13.2701   -0.1387 C   0  0  0  0  0  0  0  0  0  0  0  0
    8.1133  -13.6059   -0.3736 O   0  0  0  0  0  0  0  0  0  0  0  0
    8.9080  -12.4098   -0.4712 C   0  0  0  0  0  0  0  0  0  0  0  0
    8.4330  -11.5066   -1.6219 C   0  0  0  0  0  0  0  0  0  0  0  0
    7.3515   -8.9279   -1.7148 N   0  0  0  0  0  0  0  0  0  0  0  0
    6.8417   -7.6771   -1.7292 C   0  0  0  0  0  0  0  0  0  0  0  0
    5.2889   -3.1886    1.9284 C   0  0  0  0  0  0  0  0  0  0  0  0
    4.7926   -4.2832    2.1874 O   0  0  0  0  0  0  0  0  0  0  0  0
    5.6959   -2.2677    2.8873 N   0  0  0  0  0  0  0  0  0  0  0  0
    5.5143   -2.2975    4.2972 C   0  0  0  0  0  0  0  0  0  0  0  0
    4.7543   -3.2663    4.9467 C   0  0  0  0  0  0  0  0  0  0  0  0
    4.3778   -3.1917    6.2465 N   0  0  0  0  0  0  0  0  0  0  0  0
    4.8382   -2.1399    6.9555 C   0  0  0  0  0  0  0  0  0  0  0  0
    5.7305   -1.1892    6.4655 C   0  0  0  0  0  0  0  0  0  0  0  0
    6.2880   -0.2110    7.3135 C   0  0  0  0  0  0  0  0  0  0  0  0
    7.2159    0.7063    6.8294 C   0  0  0  0  0  0  0  0  0  0  0  0
    7.5611    0.6842    5.4859 C   0  0  0  0  0  0  0  0  0  0  0  0
    6.9927   -0.2695    4.6333 C   0  0  0  0  0  0  0  0  0  0  0  0
    6.0753   -1.2503    5.0961 C   0  0  0  0  0  0  0  0  0  0  0  0
    7.0279   -2.6126    0.1118 C   0  0  0  0  0  0  0  0  0  0  0  0
    7.6701   -1.3310    0.6004 C   0  0  0  0  0  0  0  0  0  0  0  0
    6.9926   -0.1523    0.1784 O   0  0  0  0  0  0  0  0  0  0  0  0
    3.1659    2.1376   -0.2556 H   0  0  0  0  0  0  0  0  0  0  0  0
    5.6308    1.9496   -0.1546 H   0  0  0  0  0  0  0  0  0  0  0  0
    2.8122   -2.0915    0.3463 H   0  0  0  0  0  0  0  0  0  0  0  0
    4.9949   -3.3616   -1.5783 H   0  0  0  0  0  0  0  0  0  0  0  0
    3.8408   -3.9083   -0.3657 H   0  0  0  0  0  0  0  0  0  0  0  0
    5.3726   -5.5192    0.3765 H   0  0  0  0  0  0  0  0  0  0  0  0
    5.1648   -5.5833   -2.5705 H   0  0  0  0  0  0  0  0  0  0  0  0
    3.8748   -6.0242   -1.4516 H   0  0  0  0  0  0  0  0  0  0  0  0
    3.6671   -8.4043   -1.1101 H   0  0  0  0  0  0  0  0  0  0  0  0
    6.1597  -12.9685   -2.2019 H   0  0  0  0  0  0  0  0  0  0  0  0
    5.1166  -12.1532   -1.0332 H   0  0  0  0  0  0  0  0  0  0  0  0
    6.1733  -14.2084   -0.0716 H   0  0  0  0  0  0  0  0  0  0  0  0
    6.6533  -12.7633    0.8303 H   0  0  0  0  0  0  0  0  0  0  0  0
    9.9453  -12.7153   -0.6402 H   0  0  0  0  0  0  0  0  0  0  0  0
    8.8673  -11.8779    0.4872 H   0  0  0  0  0  0  0  0  0  0  0  0
    8.5657  -12.0359   -2.5738 H   0  0  0  0  0  0  0  0  0  0  0  0
    9.0620  -10.6116   -1.6517 H   0  0  0  0  0  0  0  0  0  0  0  0
    7.5666   -6.8923   -1.9304 H   0  0  0  0  0  0  0  0  0  0  0  0
    5.9957   -1.3695    2.5401 H   0  0  0  0  0  0  0  0  0  0  0  0
    4.3775   -4.1492    4.4422 H   0  0  0  0  0  0  0  0  0  0  0  0
    4.4653   -2.0877    7.9752 H   0  0  0  0  0  0  0  0  0  0  0  0
    6.0326   -0.1866    8.3712 H   0  0  0  0  0  0  0  0  0  0  0  0
    7.6784    1.4263    7.5007 H   0  0  0  0  0  0  0  0  0  0  0  0
    8.2861    1.3955    5.0987 H   0  0  0  0  0  0  0  0  0  0  0  0
    7.3262   -0.2519    3.6013 H   0  0  0  0  0  0  0  0  0  0  0  0
    7.1514   -2.6219   -0.9804 H   0  0  0  0  0  0  0  0  0  0  0  0
    7.5832   -3.4707    0.5072 H   0  0  0  0  0  0  0  0  0  0  0  0
    8.6898   -1.2675    0.2053 H   0  0  0  0  0  0  0  0  0  0  0  0
    7.7873   -1.3130    1.6855 H   0  0  0  0  0  0  0  0  0  0  0  0
  1  2  1  0  0  0  0
  2  3  1  0  0  0  0
  2  7  2  0  0  0  0
  3  4  2  0  0  0  0
  3 40  1  0  0  0  0
  4  5  1  0  0  0  0
  4 41  1  0  0  0  0
  5  6  2  0  0  0  0
  5 39  1  0  0  0  0
  6  7  1  0  0  0  0
  6  8  1  0  0  0  0
  7 42  1  0  0  0  0
  8  9  1  0  0  0  0
  8 24  1  0  0  0  0
  8 37  1  0  0  0  0
  9 10  1  0  0  0  0
  9 43  1  0  0  0  0
  9 44  1  0  0  0  0
 10 11  1  0  0  0  0
 10 45  1  0  0  0  0
 11 12  1  0  0  0  0
 11 46  1  0  0  0  0
 11 47  1  0  0  0  0
 12 13  1  0  0  0  0
 12 23  2  0  0  0  0
 13 14  2  0  0  0  0
 13 48  1  0  0  0  0
 14 15  1  0  0  0  0
 15 16  1  0  0  0  0
 15 22  2  0  0  0  0
 16 17  1  0  0  0  0
 16 21  1  0  0  0  0
 17 18  1  0  0  0  0
 17 49  1  0  0  0  0
 17 50  1  0  0  0  0
 18 19  1  0  0  0  0
 18 51  1  0  0  0  0
 18 52  1  0  0  0  0
 19 20  1  0  0  0  0
 20 21  1  0  0  0  0
 20 53  1  0  0  0  0
 20 54  1  0  0  0  0
 21 55  1  0  0  0  0
 21 56  1  0  0  0  0
 22 23  1  0  0  0  0
 23 57  1  0  0  0  0
 24 25  2  0  0  0  0
 24 26  1  0  0  0  0
 26 27  1  0  0  0  0
 26 58  1  0  0  0  0
 27 28  1  0  0  0  0
 27 36  2  0  0  0  0
 28 29  2  0  0  0  0
 28 59  1  0  0  0  0
 29 30  1  0  0  0  0
 30 31  2  0  0  0  0
 30 60  1  0  0  0  0
 31 32  1  0  0  0  0
 31 36  1  0  0  0  0
 32 33  2  0  0  0  0
 32 61  1  0  0  0  0
 33 34  1  0  0  0  0
 33 62  1  0  0  0  0
 34 35  2  0  0  0  0
 34 63  1  0  0  0  0
 35 36  1  0  0  0  0
 35 64  1  0  0  0  0
 37 38  1  0  0  0  0
 37 65  1  0  0  0  0
 37 66  1  0  0  0  0
 38 39  1  0  0  0  0
 38 67  1  0  0  0  0
 38 68  1  0  0  0  0
M  END
$$$$
