
 OpenBabel07202414133D

 54 57  0  0  0  0  0  0  0  0999 V2000
    1.5984    1.3014   -1.2413 C   0  0  0  0  0  0  0  0  0  0  0  0
    1.2971   -0.1252   -1.1599 N   0  0  0  0  0  0  0  0  0  0  0  0
   -0.0717   -0.4995   -1.5337 C   0  0  0  0  0  0  0  0  0  0  0  0
    2.3104   -1.0376   -1.4856 C   0  0  0  0  0  0  0  0  0  0  0  0
    2.0611   -2.4037   -1.5448 C   0  0  0  0  0  0  0  0  0  0  0  0
    3.0428   -3.3055   -1.9627 C   0  0  0  0  0  0  0  0  0  0  0  0
    4.2960   -2.8215   -2.3086 C   0  0  0  0  0  0  0  0  0  0  0  0
    4.6357   -1.5278   -2.1806 N   0  0  0  0  0  0  0  0  0  0  0  0
    3.6386   -0.6868   -1.7787 C   0  0  0  0  0  0  0  0  0  0  0  0
    5.1733   -3.6954   -2.9780 N   0  0  0  0  0  0  0  0  0  0  0  0
    6.2836   -4.3199   -2.2744 C   0  0  0  0  0  0  0  0  0  0  0  0
    6.2954   -4.2120   -0.7795 C   0  0  0  0  0  0  0  0  0  0  0  0
    5.6204   -5.1511    0.0080 C   0  0  0  0  0  0  0  0  0  0  0  0
    5.5835   -5.0041    1.3923 C   0  0  0  0  0  0  0  0  0  0  0  0
    6.2190   -3.9162    1.9919 C   0  0  0  0  0  0  0  0  0  0  0  0
    6.9062   -2.9902    1.2095 C   0  0  0  0  0  0  0  0  0  0  0  0
    6.9536   -3.1356   -0.1714 C   0  0  0  0  0  0  0  0  0  0  0  0
    7.6922   -1.6528    1.9517 Cl  0  0  0  0  0  0  0  0  0  0  0  0
    5.1161   -3.6558   -4.3778 C   0  0  0  0  0  0  0  0  0  0  0  0
    4.3018   -2.9868   -5.0168 O   0  0  0  0  0  0  0  0  0  0  0  0
    6.0591   -4.5694   -5.1059 C   0  0  0  0  0  0  0  0  0  0  0  0
    7.3324   -3.9718   -5.6609 C   0  0  0  0  0  0  0  0  0  0  0  0
    7.6892   -2.6328   -5.5242 C   0  0  0  0  0  0  0  0  0  0  0  0
    8.6346   -2.0344   -6.2775 N   0  0  0  0  0  0  0  0  0  0  0  0
    9.1294   -2.7554   -7.3122 C   0  0  0  0  0  0  0  0  0  0  0  0
    8.8047   -4.0916   -7.5690 C   0  0  0  0  0  0  0  0  0  0  0  0
    8.0312   -4.7484   -6.6081 C   0  0  0  0  0  0  0  0  0  0  0  0
    7.8551   -6.1406   -6.7136 C   0  0  0  0  0  0  0  0  0  0  0  0
    8.0871   -6.7847   -7.9166 C   0  0  0  0  0  0  0  0  0  0  0  0
    8.6541   -6.0775   -8.9680 C   0  0  0  0  0  0  0  0  0  0  0  0
    9.1116   -4.7693   -8.7605 C   0  0  0  0  0  0  0  0  0  0  0  0
    0.7001    1.9083   -1.0785 H   0  0  0  0  0  0  0  0  0  0  0  0
    1.9929    1.5762   -2.2311 H   0  0  0  0  0  0  0  0  0  0  0  0
    2.3145    1.5860   -0.4656 H   0  0  0  0  0  0  0  0  0  0  0  0
   -0.7652    0.3382   -1.3990 H   0  0  0  0  0  0  0  0  0  0  0  0
   -0.4444   -1.3061   -0.8941 H   0  0  0  0  0  0  0  0  0  0  0  0
   -0.1284   -0.8051   -2.5832 H   0  0  0  0  0  0  0  0  0  0  0  0
    1.0899   -2.8298   -1.2884 H   0  0  0  0  0  0  0  0  0  0  0  0
    2.8143   -4.3652   -2.0809 H   0  0  0  0  0  0  0  0  0  0  0  0
    3.9673    0.3458   -1.7227 H   0  0  0  0  0  0  0  0  0  0  0  0
    7.2272   -3.9412   -2.6872 H   0  0  0  0  0  0  0  0  0  0  0  0
    6.2635   -5.3906   -2.5180 H   0  0  0  0  0  0  0  0  0  0  0  0
    5.1095   -5.9969   -0.4516 H   0  0  0  0  0  0  0  0  0  0  0  0
    5.0456   -5.7250    2.0022 H   0  0  0  0  0  0  0  0  0  0  0  0
    6.1722   -3.7928    3.0706 H   0  0  0  0  0  0  0  0  0  0  0  0
    7.4777   -2.4013   -0.7810 H   0  0  0  0  0  0  0  0  0  0  0  0
    5.4715   -4.9200   -5.9710 H   0  0  0  0  0  0  0  0  0  0  0  0
    6.2701   -5.4697   -4.5288 H   0  0  0  0  0  0  0  0  0  0  0  0
    7.1798   -1.9641   -4.8326 H   0  0  0  0  0  0  0  0  0  0  0  0
    9.7910   -2.1989   -7.9710 H   0  0  0  0  0  0  0  0  0  0  0  0
    7.4815   -6.7194   -5.8721 H   0  0  0  0  0  0  0  0  0  0  0  0
    7.7769   -7.8189   -8.0375 H   0  0  0  0  0  0  0  0  0  0  0  0
    8.7463   -6.5474   -9.9434 H   0  0  0  0  0  0  0  0  0  0  0  0
    9.6180   -4.2539   -9.5764 H   0  0  0  0  0  0  0  0  0  0  0  0
  1  2  1  0  0  0  0
  1 32  1  0  0  0  0
  1 33  1  0  0  0  0
  1 34  1  0  0  0  0
  2  3  1  0  0  0  0
  2  4  1  0  0  0  0
  3 35  1  0  0  0  0
  3 36  1  0  0  0  0
  3 37  1  0  0  0  0
  4  5  1  0  0  0  0
  4  9  2  0  0  0  0
  5  6  2  0  0  0  0
  5 38  1  0  0  0  0
  6  7  1  0  0  0  0
  6 39  1  0  0  0  0
  7  8  2  0  0  0  0
  7 10  1  0  0  0  0
  8  9  1  0  0  0  0
  9 40  1  0  0  0  0
 10 11  1  0  0  0  0
 10 19  1  0  0  0  0
 11 12  1  0  0  0  0
 11 41  1  0  0  0  0
 11 42  1  0  0  0  0
 12 13  1  0  0  0  0
 12 17  2  0  0  0  0
 13 14  2  0  0  0  0
 13 43  1  0  0  0  0
 14 15  1  0  0  0  0
 14 44  1  0  0  0  0
 15 16  2  0  0  0  0
 15 45  1  0  0  0  0
 16 17  1  0  0  0  0
 16 18  1  0  0  0  0
 17 46  1  0  0  0  0
 19 20  2  0  0  0  0
 19 21  1  0  0  0  0
 21 22  1  0  0  0  0
 21 47  1  0  0  0  0
 21 48  1  0  0  0  0
 22 23  1  0  0  0  0
 22 27  2  0  0  0  0
 23 24  2  0  0  0  0
 23 49  1  0  0  0  0
 24 25  1  0  0  0  0
 25 26  2  0  0  0  0
 25 50  1  0  0  0  0
 26 27  1  0  0  0  0
 26 31  1  0  0  0  0
 27 28  1  0  0  0  0
 28 29  2  0  0  0  0
 28 51  1  0  0  0  0
 29 30  1  0  0  0  0
 29 52  1  0  0  0  0
 30 31  2  0  0  0  0
 30 53  1  0  0  0  0
 31 54  1  0  0  0  0
M  END
$$$$
