
 OpenBabel07202414113D

 60 63  0  0  1  0  0  0  0  0999 V2000
    5.9087    2.9624   -2.3073 C   0  0  0  0  0  0  0  0  0  0  0  0
    5.3806    1.7241   -2.2810 C   0  0  0  0  0  0  0  0  0  0  0  0
    4.3329    1.4831   -1.2695 C   0  0  0  0  0  0  0  0  0  0  0  0
    3.7889    0.2613   -1.3475 O   0  0  0  0  0  0  0  0  0  0  0  0
    3.9710    2.2596   -0.4069 O   0  0  0  0  0  0  0  0  0  0  0  0
    5.9413    0.5985   -3.1041 C   0  0  0  0  0  0  0  0  0  0  0  0
    5.0107    0.0224   -4.1008 N   0  0  0  0  0  0  0  0  0  0  0  0
    4.4867    0.9133   -5.1152 C   0  0  0  0  0  0  0  0  0  0  0  0
    3.1003    1.0455   -5.2593 C   0  0  0  0  0  0  0  0  0  0  0  0
    2.4879    1.9877   -6.0140 N   0  0  0  0  0  0  0  0  0  0  0  0
    3.2968    2.8461   -6.6695 C   0  0  0  0  0  0  0  0  0  0  0  0
    4.6910    2.7852   -6.6601 C   0  0  0  0  0  0  0  0  0  0  0  0
    5.4707    3.7083   -7.3820 C   0  0  0  0  0  0  0  0  0  0  0  0
    6.8580    3.5887   -7.4238 C   0  0  0  0  0  0  0  0  0  0  0  0
    7.4726    2.5149   -6.7955 C   0  0  0  0  0  0  0  0  0  0  0  0
    6.7049    1.6022   -6.0694 C   0  0  0  0  0  0  0  0  0  0  0  0
    5.3070    1.7553   -5.9124 C   0  0  0  0  0  0  0  0  0  0  0  0
    4.5492   -1.3041   -4.0785 C   0  0  0  0  0  0  0  0  0  0  0  0
    5.0328   -2.2468   -2.9610 C   0  0  2  0  0  0  0  0  0  0  0  0
    6.2175   -3.1234   -3.3695 C   0  0  0  0  0  0  0  0  0  0  0  0
    7.3491   -2.5846   -4.0021 C   0  0  0  0  0  0  0  0  0  0  0  0
    8.3969   -3.4123   -4.4065 C   0  0  0  0  0  0  0  0  0  0  0  0
    9.7683   -2.7247   -5.1872 Cl  0  0  0  0  0  0  0  0  0  0  0  0
    8.3390   -4.7840   -4.1884 C   0  0  0  0  0  0  0  0  0  0  0  0
    7.2530   -5.3267   -3.5023 C   0  0  0  0  0  0  0  0  0  0  0  0
    6.2097   -4.5018   -3.0504 C   0  0  0  0  0  0  0  0  0  0  0  0
    5.0738   -5.1190   -2.2486 C   0  0  0  0  0  0  0  0  0  0  0  0
    4.3014   -4.0893   -1.5201 N   0  0  0  0  0  0  0  0  0  0  0  0
    3.1446   -4.6665   -0.8024 C   0  0  0  0  0  0  0  0  0  0  0  0
    3.5635   -5.5553    0.3741 C   0  0  0  0  0  0  0  0  0  0  0  0
    4.7177   -5.1719    1.0213 N   0  0  0  0  0  0  0  0  0  0  0  0
    5.2802   -5.9649    2.0854 C   0  0  0  0  0  0  0  0  0  0  0  0
    2.8750   -6.5082    0.7355 O   0  0  0  0  0  0  0  0  0  0  0  0
    3.8314   -3.1158   -2.5311 C   0  0  0  0  0  0  0  0  0  0  0  0
    3.8154   -1.7514   -4.9687 O   0  0  0  0  0  0  0  0  0  0  0  0
    5.5573    3.7513   -1.6455 H   0  0  0  0  0  0  0  0  0  0  0  0
    6.7281    3.2158   -2.9721 H   0  0  0  0  0  0  0  0  0  0  0  0
    3.1249    0.2742   -0.6278 H   0  0  0  0  0  0  0  0  0  0  0  0
    6.3207   -0.1571   -2.4191 H   0  0  0  0  0  0  0  0  0  0  0  0
    6.8430    0.9300   -3.6203 H   0  0  0  0  0  0  0  0  0  0  0  0
    2.4109    0.4089   -4.7108 H   0  0  0  0  0  0  0  0  0  0  0  0
    2.7708    3.6054   -7.2441 H   0  0  0  0  0  0  0  0  0  0  0  0
    4.9979    4.5252   -7.9241 H   0  0  0  0  0  0  0  0  0  0  0  0
    7.4532    4.3118   -7.9753 H   0  0  0  0  0  0  0  0  0  0  0  0
    8.5477    2.3756   -6.8767 H   0  0  0  0  0  0  0  0  0  0  0  0
    7.2115    0.7323   -5.6593 H   0  0  0  0  0  0  0  0  0  0  0  0
    5.3197   -1.7009   -2.0620 H   0  0  0  0  0  0  0  0  0  0  0  0
    7.4287   -1.5206   -4.1944 H   0  0  0  0  0  0  0  0  0  0  0  0
    9.1379   -5.4326   -4.5375 H   0  0  0  0  0  0  0  0  0  0  0  0
    7.2247   -6.3988   -3.3171 H   0  0  0  0  0  0  0  0  0  0  0  0
    5.5164   -5.8183   -1.5300 H   0  0  0  0  0  0  0  0  0  0  0  0
    4.4340   -5.6939   -2.9307 H   0  0  0  0  0  0  0  0  0  0  0  0
    2.5024   -5.2444   -1.4756 H   0  0  0  0  0  0  0  0  0  0  0  0
    2.5483   -3.8584   -0.3597 H   0  0  0  0  0  0  0  0  0  0  0  0
    5.2963   -4.4932    0.5329 H   0  0  0  0  0  0  0  0  0  0  0  0
    4.4888   -6.4208    2.6884 H   0  0  0  0  0  0  0  0  0  0  0  0
    5.9005   -5.3234    2.7145 H   0  0  0  0  0  0  0  0  0  0  0  0
    5.8954   -6.7553    1.6461 H   0  0  0  0  0  0  0  0  0  0  0  0
    3.0587   -2.4568   -2.1145 H   0  0  0  0  0  0  0  0  0  0  0  0
    3.3675   -3.6353   -3.3834 H   0  0  0  0  0  0  0  0  0  0  0  0
  1  2  2  0  0  0  0
  1 36  1  0  0  0  0
  1 37  1  0  0  0  0
  2  3  1  0  0  0  0
  2  6  1  0  0  0  0
  3  4  1  0  0  0  0
  3  5  2  0  0  0  0
  4 38  1  0  0  0  0
  6  7  1  0  0  0  0
  6 39  1  0  0  0  0
  6 40  1  0  0  0  0
  7  8  1  0  0  0  0
  7 18  1  0  0  0  0
  8  9  2  0  0  0  0
  8 17  1  0  0  0  0
  9 10  1  0  0  0  0
  9 41  1  0  0  0  0
 10 11  2  0  0  0  0
 11 12  1  0  0  0  0
 11 42  1  0  0  0  0
 12 13  2  0  0  0  0
 12 17  1  0  0  0  0
 13 14  1  0  0  0  0
 13 43  1  0  0  0  0
 14 15  2  0  0  0  0
 14 44  1  0  0  0  0
 15 16  1  0  0  0  0
 15 45  1  0  0  0  0
 16 17  2  0  0  0  0
 16 46  1  0  0  0  0
 18 35  2  0  0  0  0
 19 20  1  0  0  0  0
 19 34  1  0  0  0  0
 19 18  1  0  0  0  0
 19 47  1  1  0  0  0
 20 21  2  0  0  0  0
 20 26  1  0  0  0  0
 21 22  1  0  0  0  0
 21 48  1  0  0  0  0
 22 23  1  0  0  0  0
 22 24  2  0  0  0  0
 24 25  1  0  0  0  0
 24 49  1  0  0  0  0
 25 26  2  0  0  0  0
 25 50  1  0  0  0  0
 26 27  1  0  0  0  0
 27 28  1  0  0  0  0
 27 51  1  0  0  0  0
 27 52  1  0  0  0  0
 28 29  1  0  0  0  0
 28 34  1  0  0  0  0
 29 30  1  0  0  0  0
 29 53  1  0  0  0  0
 29 54  1  0  0  0  0
 30 31  1  0  0  0  0
 30 33  2  0  0  0  0
 31 32  1  0  0  0  0
 31 55  1  0  0  0  0
 32 56  1  0  0  0  0
 32 57  1  0  0  0  0
 32 58  1  0  0  0  0
 34 59  1  0  0  0  0
 34 60  1  0  0  0  0
M  END
$$$$
