
 OpenBabel07202414183D

 45 48  0  0  0  0  0  0  0  0999 V2000
    7.3717    3.1301   -5.2421 F   0  0  0  0  0  0  0  0  0  0  0  0
    7.8010    2.0273   -4.6104 C   0  0  0  0  0  0  0  0  0  0  0  0
    7.5817    1.9253   -3.2546 C   0  0  0  0  0  0  0  0  0  0  0  0
    8.0314    0.7788   -2.6055 C   0  0  0  0  0  0  0  0  0  0  0  0
    8.6820   -0.2456   -3.3105 C   0  0  0  0  0  0  0  0  0  0  0  0
    9.0703   -1.4447   -2.6745 N   0  0  0  0  0  0  0  0  0  0  0  0
    8.5799   -2.0071   -1.4799 C   0  0  0  0  0  0  0  0  0  0  0  0
    7.2170   -1.9224   -1.1644 C   0  0  0  0  0  0  0  0  0  0  0  0
    6.7553   -2.3072    0.0874 C   0  0  0  0  0  0  0  0  0  0  0  0
    5.0890   -2.1149    0.4724 Cl  0  0  0  0  0  0  0  0  0  0  0  0
    7.6410   -2.8011    1.0438 C   0  0  0  0  0  0  0  0  0  0  0  0
    9.0077   -2.9380    0.7466 C   0  0  0  0  0  0  0  0  0  0  0  0
    9.9698   -3.3939    1.8245 C   0  0  0  0  0  0  0  0  0  0  0  0
   10.7690   -4.6538    1.5058 C   0  0  0  0  0  0  0  0  0  0  0  0
   11.9530   -4.6053    1.1936 O   0  0  0  0  0  0  0  0  0  0  0  0
   10.0061   -5.7985    1.5972 N   0  0  0  0  0  0  0  0  0  0  0  0
   10.4452   -7.1431    1.4875 C   0  0  0  0  0  0  0  0  0  0  0  0
    9.6280   -7.9723    0.7133 C   0  0  0  0  0  0  0  0  0  0  0  0
    9.6889   -9.3164    0.6793 N   0  0  0  0  0  0  0  0  0  0  0  0
   10.6091   -9.8793    1.4859 C   0  0  0  0  0  0  0  0  0  0  0  0
   11.5227   -9.1729    2.2692 C   0  0  0  0  0  0  0  0  0  0  0  0
   12.4373   -9.8727    3.0797 C   0  0  0  0  0  0  0  0  0  0  0  0
   13.3879   -9.1920    3.8317 C   0  0  0  0  0  0  0  0  0  0  0  0
   13.4188   -7.8056    3.7903 C   0  0  0  0  0  0  0  0  0  0  0  0
   12.4701   -7.0953    3.0330 C   0  0  0  0  0  0  0  0  0  0  0  0
   11.4902   -7.7555    2.2477 C   0  0  0  0  0  0  0  0  0  0  0  0
    9.4663   -2.5369   -0.5238 C   0  0  0  0  0  0  0  0  0  0  0  0
    8.8414   -0.0219   -4.6904 C   0  0  0  0  0  0  0  0  0  0  0  0
    9.6690   -1.3526   -5.7772 Br  0  0  0  0  0  0  0  0  0  0  0  0
    8.4262    1.0919   -5.3458 N   0  0  0  0  0  0  0  0  0  0  0  0
    7.0672    2.7132   -2.7200 H   0  0  0  0  0  0  0  0  0  0  0  0
    7.8713    0.7079   -1.5332 H   0  0  0  0  0  0  0  0  0  0  0  0
    9.8796   -1.9031   -3.0840 H   0  0  0  0  0  0  0  0  0  0  0  0
    6.5123   -1.5347   -1.8976 H   0  0  0  0  0  0  0  0  0  0  0  0
    7.2603   -3.0447    2.0336 H   0  0  0  0  0  0  0  0  0  0  0  0
    9.4228   -3.5789    2.7592 H   0  0  0  0  0  0  0  0  0  0  0  0
   10.6684   -2.5789    2.0458 H   0  0  0  0  0  0  0  0  0  0  0  0
    9.0202   -5.6556    1.4057 H   0  0  0  0  0  0  0  0  0  0  0  0
    8.8691   -7.5492    0.0601 H   0  0  0  0  0  0  0  0  0  0  0  0
   10.5907  -10.9667    1.4857 H   0  0  0  0  0  0  0  0  0  0  0  0
   12.4118  -10.9598    3.1284 H   0  0  0  0  0  0  0  0  0  0  0  0
   14.1010   -9.7403    4.4399 H   0  0  0  0  0  0  0  0  0  0  0  0
   14.1832   -7.2657    4.3448 H   0  0  0  0  0  0  0  0  0  0  0  0
   12.5410   -6.0121    3.0414 H   0  0  0  0  0  0  0  0  0  0  0  0
   10.5303   -2.5942   -0.7495 H   0  0  0  0  0  0  0  0  0  0  0  0
  1  2  1  0  0  0  0
  2  3  2  0  0  0  0
  2 30  1  0  0  0  0
  3  4  1  0  0  0  0
  3 31  1  0  0  0  0
  4  5  2  0  0  0  0
  4 32  1  0  0  0  0
  5  6  1  0  0  0  0
  5 28  1  0  0  0  0
  6  7  1  0  0  0  0
  6 33  1  0  0  0  0
  7  8  2  0  0  0  0
  7 27  1  0  0  0  0
  8  9  1  0  0  0  0
  8 34  1  0  0  0  0
  9 10  1  0  0  0  0
  9 11  2  0  0  0  0
 11 12  1  0  0  0  0
 11 35  1  0  0  0  0
 12 13  1  0  0  0  0
 12 27  2  0  0  0  0
 13 14  1  0  0  0  0
 13 36  1  0  0  0  0
 13 37  1  0  0  0  0
 14 15  2  0  0  0  0
 14 16  1  0  0  0  0
 16 17  1  0  0  0  0
 16 38  1  0  0  0  0
 17 18  2  0  0  0  0
 17 26  1  0  0  0  0
 18 19  1  0  0  0  0
 18 39  1  0  0  0  0
 19 20  2  0  0  0  0
 20 21  1  0  0  0  0
 20 40  1  0  0  0  0
 21 22  2  0  0  0  0
 21 26  1  0  0  0  0
 22 23  1  0  0  0  0
 22 41  1  0  0  0  0
 23 24  2  0  0  0  0
 23 42  1  0  0  0  0
 24 25  1  0  0  0  0
 24 43  1  0  0  0  0
 25 26  2  0  0  0  0
 25 44  1  0  0  0  0
 27 45  1  0  0  0  0
 28 29  1  0  0  0  0
 28 30  2  0  0  0  0
M  END
$$$$
