
 OpenBabel07202414153D

 38 40  0  0  0  0  0  0  0  0999 V2000
    0.9809   -0.7436    0.0897 C   0  0  0  0  0  0  0  0  0  0  0  0
    2.3373   -0.3048    0.1166 O   0  0  0  0  0  0  0  0  0  0  0  0
    2.9890   -0.4612    1.3110 C   0  0  0  0  0  0  0  0  0  0  0  0
    2.6273   -1.3686    2.2997 C   0  0  0  0  0  0  0  0  0  0  0  0
    3.3681   -1.4361    3.4767 C   0  0  0  0  0  0  0  0  0  0  0  0
    4.4760   -0.5989    3.6792 C   0  0  0  0  0  0  0  0  0  0  0  0
    5.1972   -0.6782    4.8676 C   0  0  0  0  0  0  0  0  0  0  0  0
    6.2619    0.0859    5.1648 N   0  0  0  0  0  0  0  0  0  0  0  0
    6.6486    0.9692    4.2162 C   0  0  0  0  0  0  0  0  0  0  0  0
    6.0307    1.1381    2.9720 C   0  0  0  0  0  0  0  0  0  0  0  0
    4.8862    0.3297    2.6910 C   0  0  0  0  0  0  0  0  0  0  0  0
    4.1125    0.3617    1.4967 C   0  0  0  0  0  0  0  0  0  0  0  0
    6.4972    2.0986    2.0293 N   0  0  0  0  0  0  0  0  0  0  0  0
    7.7118    2.7671    2.0881 C   0  0  0  0  0  0  0  0  0  0  0  0
    8.6047    2.5660    2.9074 O   0  0  0  0  0  0  0  0  0  0  0  0
    7.8983    3.8096    0.9993 C   0  0  0  0  0  0  0  0  0  0  0  0
    8.4792    3.2500   -0.2759 C   0  0  0  0  0  0  0  0  0  0  0  0
    9.6905    2.5398   -0.2643 C   0  0  0  0  0  0  0  0  0  0  0  0
   10.2475    2.0624   -1.4527 C   0  0  0  0  0  0  0  0  0  0  0  0
    9.6054    2.2973   -2.6676 C   0  0  0  0  0  0  0  0  0  0  0  0
    8.4080    3.0080   -2.6881 C   0  0  0  0  0  0  0  0  0  0  0  0
    7.8447    3.4853   -1.5037 C   0  0  0  0  0  0  0  0  0  0  0  0
    7.6183    3.3118   -4.1868 Cl  0  0  0  0  0  0  0  0  0  0  0  0
    0.5400   -0.4168   -0.8567 H   0  0  0  0  0  0  0  0  0  0  0  0
    0.4026   -0.2891    0.9021 H   0  0  0  0  0  0  0  0  0  0  0  0
    0.9152   -1.8361    0.1249 H   0  0  0  0  0  0  0  0  0  0  0  0
    1.7874   -2.0450    2.1819 H   0  0  0  0  0  0  0  0  0  0  0  0
    3.0716   -2.1552    4.2388 H   0  0  0  0  0  0  0  0  0  0  0  0
    4.9265   -1.3840    5.6486 H   0  0  0  0  0  0  0  0  0  0  0  0
    7.4911    1.5733    4.5350 H   0  0  0  0  0  0  0  0  0  0  0  0
    4.3706    1.0287    0.6814 H   0  0  0  0  0  0  0  0  0  0  0  0
    5.9411    2.2367    1.1972 H   0  0  0  0  0  0  0  0  0  0  0  0
    8.5712    4.5868    1.3845 H   0  0  0  0  0  0  0  0  0  0  0  0
    6.9386    4.3061    0.8136 H   0  0  0  0  0  0  0  0  0  0  0  0
   10.2168    2.3588    0.6736 H   0  0  0  0  0  0  0  0  0  0  0  0
   11.1867    1.5143   -1.4297 H   0  0  0  0  0  0  0  0  0  0  0  0
   10.0461    1.9314   -3.5908 H   0  0  0  0  0  0  0  0  0  0  0  0
    6.9178    4.0522   -1.5444 H   0  0  0  0  0  0  0  0  0  0  0  0
  1  2  1  0  0  0  0
  1 24  1  0  0  0  0
  1 25  1  0  0  0  0
  1 26  1  0  0  0  0
  2  3  1  0  0  0  0
  3  4  1  0  0  0  0
  3 12  2  0  0  0  0
  4  5  2  0  0  0  0
  4 27  1  0  0  0  0
  5  6  1  0  0  0  0
  5 28  1  0  0  0  0
  6  7  1  0  0  0  0
  6 11  2  0  0  0  0
  7  8  2  0  0  0  0
  7 29  1  0  0  0  0
  8  9  1  0  0  0  0
  9 10  2  0  0  0  0
  9 30  1  0  0  0  0
 10 11  1  0  0  0  0
 10 13  1  0  0  0  0
 11 12  1  0  0  0  0
 12 31  1  0  0  0  0
 13 14  1  0  0  0  0
 13 32  1  0  0  0  0
 14 15  2  0  0  0  0
 14 16  1  0  0  0  0
 16 17  1  0  0  0  0
 16 33  1  0  0  0  0
 16 34  1  0  0  0  0
 17 18  1  0  0  0  0
 17 22  2  0  0  0  0
 18 19  2  0  0  0  0
 18 35  1  0  0  0  0
 19 20  1  0  0  0  0
 19 36  1  0  0  0  0
 20 21  2  0  0  0  0
 20 37  1  0  0  0  0
 21 22  1  0  0  0  0
 21 23  1  0  0  0  0
 22 38  1  0  0  0  0
M  END
$$$$
