
 OpenBabel07202414153D

 47 48  0  0  1  0  0  0  0  0999 V2000
    3.2258    0.9773    0.9898 C   0  0  0  0  0  0  0  0  0  0  0  0
    2.4891   -0.2553    0.4469 C   0  0  1  0  0  0  0  0  0  0  0  0
    1.0055    0.0894    0.2190 C   0  0  0  0  0  0  0  0  0  0  0  0
    0.3793    0.5171    1.4171 O   0  0  0  0  0  0  0  0  0  0  0  0
    3.0936   -0.7910   -0.8715 C   0  0  0  0  0  0  0  0  0  0  0  0
    4.5984   -1.1379   -0.8239 C   0  0  2  0  0  0  0  0  0  0  0  0
    5.1423   -1.4558   -2.2442 C   0  0  0  0  0  0  0  0  0  0  0  0
    6.6052   -1.5909   -2.2228 N   0  0  0  0  0  0  0  0  0  0  0  0
    7.4610   -1.1726   -3.2421 C   0  0  0  0  0  0  0  0  0  0  0  0
    8.6661   -1.4292   -3.2016 O   0  0  0  0  0  0  0  0  0  0  0  0
    6.8280   -0.3850   -4.3815 C   0  0  0  0  0  0  0  0  0  0  0  0
    8.0320    0.1668   -5.5636 Cl  0  0  0  0  0  0  0  0  0  0  0  0
    7.1491   -2.4414   -1.1545 C   0  0  0  0  0  0  0  0  0  0  0  0
    6.4828   -2.1834    0.2153 C   0  0  0  0  0  0  0  0  0  0  0  0
    4.9954   -2.1594    0.1937 N   0  0  0  0  0  0  0  0  0  0  0  0
    4.4331   -3.4965   -0.0830 C   0  0  0  0  0  0  0  0  0  0  0  0
    4.7514   -4.5658    0.9466 C   0  0  0  0  0  0  0  0  0  0  0  0
    5.4349   -5.7342    0.5672 C   0  0  0  0  0  0  0  0  0  0  0  0
    5.6283   -6.7813    1.4751 C   0  0  0  0  0  0  0  0  0  0  0  0
    5.1459   -6.6683    2.7769 C   0  0  0  0  0  0  0  0  0  0  0  0
    4.4966   -5.5016    3.1733 C   0  0  0  0  0  0  0  0  0  0  0  0
    3.9002   -5.3640    4.7816 Cl  0  0  0  0  0  0  0  0  0  0  0  0
    4.3004   -4.4516    2.2697 C   0  0  0  0  0  0  0  0  0  0  0  0
    2.8037    1.2926    1.9500 H   0  0  0  0  0  0  0  0  0  0  0  0
    3.1509    1.8211    0.2953 H   0  0  0  0  0  0  0  0  0  0  0  0
    4.2850    0.7761    1.1697 H   0  0  0  0  0  0  0  0  0  0  0  0
    2.5493   -1.0374    1.2138 H   0  0  0  0  0  0  0  0  0  0  0  0
    0.4549   -0.7784   -0.1566 H   0  0  0  0  0  0  0  0  0  0  0  0
    0.9023    0.8954   -0.5166 H   0  0  0  0  0  0  0  0  0  0  0  0
    0.5052   -0.1776    2.0856 H   0  0  0  0  0  0  0  0  0  0  0  0
    2.9457   -0.0261   -1.6472 H   0  0  0  0  0  0  0  0  0  0  0  0
    2.5190   -1.6632   -1.2068 H   0  0  0  0  0  0  0  0  0  0  0  0
    5.1012   -0.2044   -0.5375 H   0  0  0  0  0  0  0  0  0  0  0  0
    4.8398   -0.6634   -2.9321 H   0  0  0  0  0  0  0  0  0  0  0  0
    4.7270   -2.3880   -2.6442 H   0  0  0  0  0  0  0  0  0  0  0  0
    6.3314    0.5076   -3.9921 H   0  0  0  0  0  0  0  0  0  0  0  0
    6.1143   -1.0217   -4.9107 H   0  0  0  0  0  0  0  0  0  0  0  0
    8.2285   -2.2887   -1.0551 H   0  0  0  0  0  0  0  0  0  0  0  0
    6.9988   -3.4820   -1.4637 H   0  0  0  0  0  0  0  0  0  0  0  0
    6.8228   -1.2046    0.5825 H   0  0  0  0  0  0  0  0  0  0  0  0
    6.8548   -2.9028    0.9530 H   0  0  0  0  0  0  0  0  0  0  0  0
    4.7372   -3.8671   -1.0676 H   0  0  0  0  0  0  0  0  0  0  0  0
    3.3392   -3.4347   -0.1140 H   0  0  0  0  0  0  0  0  0  0  0  0
    5.8068   -5.8509   -0.4487 H   0  0  0  0  0  0  0  0  0  0  0  0
    6.1415   -7.6868    1.1622 H   0  0  0  0  0  0  0  0  0  0  0  0
    5.2757   -7.4910    3.4747 H   0  0  0  0  0  0  0  0  0  0  0  0
    3.7798   -3.5504    2.5856 H   0  0  0  0  0  0  0  0  0  0  0  0
  1  2  1  0  0  0  0
  1 24  1  0  0  0  0
  1 25  1  0  0  0  0
  1 26  1  0  0  0  0
  2  3  1  0  0  0  0
  2  5  1  0  0  0  0
  2 27  1  1  0  0  0
  3  4  1  0  0  0  0
  3 28  1  0  0  0  0
  3 29  1  0  0  0  0
  4 30  1  0  0  0  0
  5  6  1  0  0  0  0
  5 31  1  0  0  0  0
  5 32  1  0  0  0  0
  6  7  1  0  0  0  0
  6 15  1  0  0  0  0
  6 33  1  1  0  0  0
  7  8  1  0  0  0  0
  7 34  1  0  0  0  0
  7 35  1  0  0  0  0
  8  9  1  0  0  0  0
  8 13  1  0  0  0  0
  9 10  2  0  0  0  0
  9 11  1  0  0  0  0
 11 12  1  0  0  0  0
 11 36  1  0  0  0  0
 11 37  1  0  0  0  0
 13 14  1  0  0  0  0
 13 38  1  0  0  0  0
 13 39  1  0  0  0  0
 14 15  1  0  0  0  0
 14 40  1  0  0  0  0
 14 41  1  0  0  0  0
 15 16  1  0  0  0  0
 16 17  1  0  0  0  0
 16 42  1  0  0  0  0
 16 43  1  0  0  0  0
 17 18  1  0  0  0  0
 17 23  2  0  0  0  0
 18 19  2  0  0  0  0
 18 44  1  0  0  0  0
 19 20  1  0  0  0  0
 19 45  1  0  0  0  0
 20 21  2  0  0  0  0
 20 46  1  0  0  0  0
 21 22  1  0  0  0  0
 21 23  1  0  0  0  0
 23 47  1  0  0  0  0
M  END
$$$$
