
 OpenBabel07202414143D

 53 56  0  0  1  0  0  0  0  0999 V2000
    6.9139   -2.1404    1.7921 C   0  0  0  0  0  0  0  0  0  0  0  0
    6.4446   -0.8298    1.4078 N   0  0  0  0  0  0  0  0  0  0  0  0
    5.1015   -0.6590    1.3253 C   0  0  0  0  0  0  0  0  0  0  0  0
    4.4004   -1.6387    1.5879 O   0  0  0  0  0  0  0  0  0  0  0  0
    4.5686    0.7632    0.9777 C   0  0  0  0  0  0  0  0  0  0  0  0
    5.0244    1.7085    2.0154 N   0  0  0  0  0  0  0  0  0  0  0  0
    4.5160    1.3134    3.3648 C   0  0  0  0  0  0  0  0  0  0  0  0
    5.0533    2.1702    4.4926 C   0  0  3  0  0  0  0  0  0  0  0  0
    4.2024    1.8847    5.7498 C   0  0  0  0  0  0  0  0  0  0  0  0
    6.5216    1.9562    4.6833 C   0  0  0  0  0  0  0  0  0  0  0  0
    7.2691    2.6759    4.0480 O   0  0  0  0  0  0  0  0  0  0  0  0
    7.0608    1.0216    5.4025 N   0  0  0  0  0  0  0  0  0  0  0  0
    8.7484    0.7002    5.5424 C   0  0  0  0  0  0  0  0  0  0  0  0
    9.9945    1.3122    4.9576 C   0  0  0  0  0  0  0  0  0  0  0  0
   11.1189    0.5839    5.3374 N   0  0  0  0  0  0  0  0  0  0  0  0
   11.1155   -0.4797    6.1297 C   0  0  0  0  0  0  0  0  0  0  0  0
   10.0034   -1.0207    6.7263 C   0  0  0  0  0  0  0  0  0  0  0  0
   10.1992   -2.0518    7.6346 C   0  0  0  0  0  0  0  0  0  0  0  0
    9.1994   -2.4645    8.5075 C   0  0  0  0  0  0  0  0  0  0  0  0
    7.8944   -2.1914    8.1938 C   0  0  0  0  0  0  0  0  0  0  0  0
    7.6505   -1.2622    7.1691 C   0  0  0  0  0  0  0  0  0  0  0  0
    5.9256   -1.1261    6.8329 Cl  0  0  0  0  0  0  0  0  0  0  0  0
    8.7447   -0.5019    6.4687 C   0  0  0  0  0  0  0  0  0  0  0  0
    4.8734    3.6780    4.1795 C   0  0  0  0  0  0  0  0  0  0  0  0
    4.9713    4.6270    5.2047 C   0  0  0  0  0  0  0  0  0  0  0  0
    4.8783    5.9979    4.9451 C   0  0  0  0  0  0  0  0  0  0  0  0
    4.9888    7.1172    6.2412 Cl  0  0  0  0  0  0  0  0  0  0  0  0
    4.6977    6.4659    3.6547 C   0  0  0  0  0  0  0  0  0  0  0  0
    4.6246    5.5652    2.6217 C   0  0  0  0  0  0  0  0  0  0  0  0
    4.7516    4.2093    2.8968 C   0  0  0  0  0  0  0  0  0  0  0  0
    4.5926    3.2664    1.4734 S   0  0  0  0  0  0  0  0  0  0  0  0
    5.5872    3.6738    0.5069 O   0  0  0  0  0  0  0  0  0  0  0  0
    3.1936    3.3702    1.1321 O   0  0  0  0  0  0  0  0  0  0  0  0
    7.9932   -2.1064    1.8991 H   0  0  0  0  0  0  0  0  0  0  0  0
    6.6272   -2.8724    1.0265 H   0  0  0  0  0  0  0  0  0  0  0  0
    6.4503   -2.4406    2.7411 H   0  0  0  0  0  0  0  0  0  0  0  0
    7.0691   -0.0563    1.2501 H   0  0  0  0  0  0  0  0  0  0  0  0
    3.4702    0.8080    0.9421 H   0  0  0  0  0  0  0  0  0  0  0  0
    4.9488    1.1081    0.0133 H   0  0  0  0  0  0  0  0  0  0  0  0
    4.7262    0.2488    3.5284 H   0  0  0  0  0  0  0  0  0  0  0  0
    3.4502    1.4381    3.4192 H   0  0  0  0  0  0  0  0  0  0  0  0
    4.2446    0.8344    6.0382 H   0  0  0  0  0  0  0  0  0  0  0  0
    3.1575    2.1733    5.5730 H   0  0  0  0  0  0  0  0  0  0  0  0
    4.5521    2.4644    6.6066 H   0  0  0  0  0  0  0  0  0  0  0  0
    6.6996    0.5679    6.1664 H   0  0  0  0  0  0  0  0  0  0  0  0
   10.9994    1.7933    4.4962 H   0  0  0  0  0  0  0  0  0  0  0  0
   12.1443   -0.7797    6.2809 H   0  0  0  0  0  0  0  0  0  0  0  0
   11.1572   -2.5703    7.6622 H   0  0  0  0  0  0  0  0  0  0  0  0
    9.4739   -2.9706    9.4241 H   0  0  0  0  0  0  0  0  0  0  0  0
    7.1043   -2.7001    8.7445 H   0  0  0  0  0  0  0  0  0  0  0  0
    5.1536    4.3229    6.2275 H   0  0  0  0  0  0  0  0  0  0  0  0
    4.6254    7.5188    3.4323 H   0  0  0  0  0  0  0  0  0  0  0  0
    4.4631    5.8893    1.5914 H   0  0  0  0  0  0  0  0  0  0  0  0
  1  2  1  0  0  0  0
  1 34  1  0  0  0  0
  1 35  1  0  0  0  0
  1 36  1  0  0  0  0
  2  3  1  0  0  0  0
  2 37  1  0  0  0  0
  3  4  2  0  0  0  0
  3  5  1  0  0  0  0
  5  6  1  0  0  0  0
  5 38  1  0  0  0  0
  5 39  1  0  0  0  0
  6  7  1  0  0  0  0
  6 31  1  0  0  0  0
  7  8  1  0  0  0  0
  7 40  1  0  0  0  0
  7 41  1  0  0  0  0
  8  9  1  0  0  0  0
  8 10  1  0  0  0  0
  8 24  1  0  0  0  0
  9 42  1  0  0  0  0
  9 43  1  0  0  0  0
  9 44  1  0  0  0  0
 10 11  2  0  0  0  0
 10 12  1  0  0  0  0
 12 13  1  0  0  0  0
 12 45  1  0  0  0  0
 13 14  1  0  0  0  0
 13 23  2  0  0  0  0
 14 15  2  0  0  0  0
 14 46  1  0  0  0  0
 15 16  1  0  0  0  0
 16 17  2  0  0  0  0
 16 47  1  0  0  0  0
 17 18  1  0  0  0  0
 17 23  1  0  0  0  0
 18 19  2  0  0  0  0
 18 48  1  0  0  0  0
 19 20  1  0  0  0  0
 19 49  1  0  0  0  0
 20 21  2  0  0  0  0
 20 50  1  0  0  0  0
 21 22  1  0  0  0  0
 21 23  1  0  0  0  0
 24 25  1  0  0  0  0
 24 30  2  0  0  0  0
 25 26  2  0  0  0  0
 25 51  1  0  0  0  0
 26 27  1  0  0  0  0
 26 28  1  0  0  0  0
 28 29  2  0  0  0  0
 28 52  1  0  0  0  0
 29 30  1  0  0  0  0
 29 53  1  0  0  0  0
 30 31  1  0  0  0  0
 31 32  2  0  0  0  0
 31 33  2  0  0  0  0
M  END
$$$$
