
 OpenBabel07202414203D

 50 54  0  0  1  0  0  0  0  0999 V2000
    5.3738    1.0400   -3.1713 C   0  0  0  0  0  0  0  0  0  0  0  0
    5.1866    2.3502   -2.7458 C   0  0  0  0  0  0  0  0  0  0  0  0
    3.9713    2.7435   -2.1646 C   0  0  0  0  0  0  0  0  0  0  0  0
    2.8966    1.8361   -1.9919 C   0  0  0  0  0  0  0  0  0  0  0  0
    3.1180    0.5066   -2.4538 C   0  0  0  0  0  0  0  0  0  0  0  0
    4.3419    0.1224   -3.0261 C   0  0  0  0  0  0  0  0  0  0  0  0
    2.0897   -0.4224   -2.3359 C   0  0  0  0  0  0  0  0  0  0  0  0
    0.8860   -0.1587   -1.8017 N   0  0  0  0  0  0  0  0  0  0  0  0
    0.6864    1.1093   -1.3701 C   0  0  0  0  0  0  0  0  0  0  0  0
    1.6229    2.1513   -1.4305 C   0  0  0  0  0  0  0  0  0  0  0  0
    1.3177    3.4541   -0.8997 N   0  0  0  0  0  0  0  0  0  0  0  0
    0.0270    3.9177   -0.7012 C   0  0  0  0  0  0  0  0  0  0  0  0
   -0.9705    3.3571   -1.1636 O   0  0  0  0  0  0  0  0  0  0  0  0
   -0.1866    5.1772    0.1375 C   0  0  3  0  0  0  0  0  0  0  0  0
    0.4325    5.1048    1.5288 C   0  0  0  0  0  0  0  0  0  0  0  0
   -0.1827    6.2432    2.3340 C   0  0  0  0  0  0  0  0  0  0  0  0
    0.2012    7.5253    1.7450 N   0  0  0  0  0  0  0  0  0  0  0  0
    0.1589    7.6775    0.3609 C   0  0  0  0  0  0  0  0  0  0  0  0
    0.0439    6.5424   -0.4944 C   0  0  0  0  0  0  0  0  0  0  0  0
   -0.0238    6.7126   -1.8895 C   0  0  0  0  0  0  0  0  0  0  0  0
    0.0038    7.9908   -2.4432 C   0  0  0  0  0  0  0  0  0  0  0  0
    0.1077    9.1077   -1.6260 C   0  0  0  0  0  0  0  0  0  0  0  0
    0.1983    8.9475   -0.2410 C   0  0  0  0  0  0  0  0  0  0  0  0
   -0.1394    8.1927   -4.1454 Cl  0  0  0  0  0  0  0  0  0  0  0  0
    0.6369    8.5895    2.6598 C   0  0  0  0  0  0  0  0  0  0  0  0
   -0.4274    9.5049    3.1490 C   0  0  0  0  0  0  0  0  0  0  0  0
   -0.3851   10.5908    3.9971 C   0  0  0  0  0  0  0  0  0  0  0  0
   -1.6387   11.1228    4.1682 N   0  0  0  0  0  0  0  0  0  0  0  0
   -2.4373   10.3851    3.4331 C   0  0  0  0  0  0  0  0  0  0  0  0
   -1.7480    9.3992    2.7906 N   0  0  0  0  0  0  0  0  0  0  0  0
    6.3143    0.7339   -3.6223 H   0  0  0  0  0  0  0  0  0  0  0  0
    5.9892    3.0723   -2.8752 H   0  0  0  0  0  0  0  0  0  0  0  0
    3.8765    3.7844   -1.8687 H   0  0  0  0  0  0  0  0  0  0  0  0
    4.4957   -0.9000   -3.3709 H   0  0  0  0  0  0  0  0  0  0  0  0
    2.2071   -1.4463   -2.6849 H   0  0  0  0  0  0  0  0  0  0  0  0
   -0.2935    1.2372   -0.9219 H   0  0  0  0  0  0  0  0  0  0  0  0
    2.0790    4.1100   -0.7882 H   0  0  0  0  0  0  0  0  0  0  0  0
   -1.2783    5.1637    0.2979 H   0  0  0  0  0  0  0  0  0  0  0  0
    1.5241    5.2129    1.4898 H   0  0  0  0  0  0  0  0  0  0  0  0
    0.2116    4.1440    2.0062 H   0  0  0  0  0  0  0  0  0  0  0  0
    0.1330    6.1699    3.3802 H   0  0  0  0  0  0  0  0  0  0  0  0
   -1.2793    6.1681    2.3389 H   0  0  0  0  0  0  0  0  0  0  0  0
   -0.1455    5.8572   -2.5505 H   0  0  0  0  0  0  0  0  0  0  0  0
    0.0969   10.1085   -2.0506 H   0  0  0  0  0  0  0  0  0  0  0  0
    0.2518    9.8523    0.3598 H   0  0  0  0  0  0  0  0  0  0  0  0
    1.4448    9.1758    2.2043 H   0  0  0  0  0  0  0  0  0  0  0  0
    1.1021    8.1284    3.5416 H   0  0  0  0  0  0  0  0  0  0  0  0
    0.4795   11.0156    4.4945 H   0  0  0  0  0  0  0  0  0  0  0  0
   -3.5078   10.5193    3.3343 H   0  0  0  0  0  0  0  0  0  0  0  0
   -2.1254    8.7123    2.1535 H   0  0  0  0  0  0  0  0  0  0  0  0
  1  2  1  0  0  0  0
  1  6  2  0  0  0  0
  1 31  1  0  0  0  0
  2  3  2  0  0  0  0
  2 32  1  0  0  0  0
  3  4  1  0  0  0  0
  3 33  1  0  0  0  0
  4  5  1  0  0  0  0
  4 10  2  0  0  0  0
  5  6  1  0  0  0  0
  5  7  2  0  0  0  0
  6 34  1  0  0  0  0
  7  8  1  0  0  0  0
  7 35  1  0  0  0  0
  8  9  2  0  0  0  0
  9 10  1  0  0  0  0
  9 36  1  0  0  0  0
 10 11  1  0  0  0  0
 11 12  1  0  0  0  0
 11 37  1  0  0  0  0
 12 13  2  0  0  0  0
 12 14  1  0  0  0  0
 14 15  1  0  0  0  0
 14 19  1  0  0  0  0
 14 38  1  0  0  0  0
 15 16  1  0  0  0  0
 15 39  1  0  0  0  0
 15 40  1  0  0  0  0
 16 17  1  0  0  0  0
 16 41  1  0  0  0  0
 16 42  1  0  0  0  0
 17 18  1  0  0  0  0
 17 25  1  0  0  0  0
 18 19  1  0  0  0  0
 18 23  2  0  0  0  0
 19 20  2  0  0  0  0
 20 21  1  0  0  0  0
 20 43  1  0  0  0  0
 21 22  2  0  0  0  0
 21 24  1  0  0  0  0
 22 23  1  0  0  0  0
 22 44  1  0  0  0  0
 23 45  1  0  0  0  0
 25 26  1  0  0  0  0
 25 46  1  0  0  0  0
 25 47  1  0  0  0  0
 26 27  2  0  0  0  0
 26 30  1  0  0  0  0
 27 28  1  0  0  0  0
 27 48  1  0  0  0  0
 28 29  2  0  0  0  0
 29 30  1  0  0  0  0
 29 49  1  0  0  0  0
 30 50  1  0  0  0  0
M  END
$$$$
