
 OpenBabel07202414173D

 41 44  0  0  1  0  0  0  0  0999 V2000
    0.9183   -0.0261   -0.1113 Cl  0  0  0  0  0  0  0  0  0  0  0  0
    2.6353   -0.0784   -0.0227 C   0  0  0  0  0  0  0  0  0  0  0  0
    3.3692    1.0964   -0.1532 C   0  0  0  0  0  0  0  0  0  0  0  0
    4.7624    1.0510   -0.0999 C   0  0  0  0  0  0  0  0  0  0  0  0
    5.4329   -0.1660    0.1018 C   0  0  0  0  0  0  0  0  0  0  0  0
    4.6850   -1.3516    0.2577 C   0  0  0  0  0  0  0  0  0  0  0  0
    3.2820   -1.2954    0.1861 C   0  0  0  0  0  0  0  0  0  0  0  0
    5.3691   -2.6776    0.5903 C   0  0  3  0  0  0  0  0  0  0  0  0
    5.2627   -3.0783    2.0863 C   0  0  0  0  0  0  0  0  0  0  0  0
    5.3095   -4.2608    2.4116 O   0  0  0  0  0  0  0  0  0  0  0  0
    5.1886   -2.0100    2.9583 N   0  0  0  0  0  0  0  0  0  0  0  0
    4.9443   -2.0245    4.3554 C   0  0  0  0  0  0  0  0  0  0  0  0
    4.7481   -3.1973    5.0857 C   0  0  0  0  0  0  0  0  0  0  0  0
    4.3152   -3.2319    6.3670 N   0  0  0  0  0  0  0  0  0  0  0  0
    4.1242   -2.0416    6.9730 C   0  0  0  0  0  0  0  0  0  0  0  0
    4.4223   -0.8076    6.4030 C   0  0  0  0  0  0  0  0  0  0  0  0
    4.3353    0.3843    7.1506 C   0  0  0  0  0  0  0  0  0  0  0  0
    4.6585    1.6111    6.5796 C   0  0  0  0  0  0  0  0  0  0  0  0
    5.0418    1.6669    5.2458 C   0  0  0  0  0  0  0  0  0  0  0  0
    5.1242    0.4920    4.4949 C   0  0  0  0  0  0  0  0  0  0  0  0
    4.8343   -0.7812    5.0501 C   0  0  0  0  0  0  0  0  0  0  0  0
    6.8210   -2.6895    0.1167 C   0  0  0  0  0  0  0  0  0  0  0  0
    7.5783   -1.4556    0.5976 C   0  0  0  0  0  0  0  0  0  0  0  0
    6.9430   -0.1714    0.0710 C   0  0  0  0  0  0  0  0  0  0  0  0
    2.8651    2.0465   -0.3092 H   0  0  0  0  0  0  0  0  0  0  0  0
    5.3265    1.9745   -0.2262 H   0  0  0  0  0  0  0  0  0  0  0  0
    2.6911   -2.2033    0.2989 H   0  0  0  0  0  0  0  0  0  0  0  0
    4.8313   -3.4595    0.0333 H   0  0  0  0  0  0  0  0  0  0  0  0
    5.1419   -1.0988    2.5356 H   0  0  0  0  0  0  0  0  0  0  0  0
    4.9183   -4.1811    4.6601 H   0  0  0  0  0  0  0  0  0  0  0  0
    3.7161   -2.1139    7.9776 H   0  0  0  0  0  0  0  0  0  0  0  0
    4.0422    0.3543    8.1985 H   0  0  0  0  0  0  0  0  0  0  0  0
    4.6230    2.5187    7.1755 H   0  0  0  0  0  0  0  0  0  0  0  0
    5.2928    2.6228    4.7921 H   0  0  0  0  0  0  0  0  0  0  0  0
    5.4614    0.6032    3.4661 H   0  0  0  0  0  0  0  0  0  0  0  0
    6.8457   -2.7096   -0.9820 H   0  0  0  0  0  0  0  0  0  0  0  0
    7.3321   -3.5942    0.4625 H   0  0  0  0  0  0  0  0  0  0  0  0
    8.6220   -1.5049    0.2658 H   0  0  0  0  0  0  0  0  0  0  0  0
    7.6032   -1.4374    1.6936 H   0  0  0  0  0  0  0  0  0  0  0  0
    7.2540   -0.0222   -0.9707 H   0  0  0  0  0  0  0  0  0  0  0  0
    7.3293    0.6747    0.6527 H   0  0  0  0  0  0  0  0  0  0  0  0
  1  2  1  0  0  0  0
  2  3  1  0  0  0  0
  2  7  2  0  0  0  0
  3  4  2  0  0  0  0
  3 25  1  0  0  0  0
  4  5  1  0  0  0  0
  4 26  1  0  0  0  0
  5  6  2  0  0  0  0
  5 24  1  0  0  0  0
  6  7  1  0  0  0  0
  6  8  1  0  0  0  0
  7 27  1  0  0  0  0
  8  9  1  0  0  0  0
  8 22  1  0  0  0  0
  8 28  1  0  0  0  0
  9 10  2  0  0  0  0
  9 11  1  0  0  0  0
 11 12  1  0  0  0  0
 11 29  1  0  0  0  0
 12 13  1  0  0  0  0
 12 21  2  0  0  0  0
 13 14  2  0  0  0  0
 13 30  1  0  0  0  0
 14 15  1  0  0  0  0
 15 16  2  0  0  0  0
 15 31  1  0  0  0  0
 16 17  1  0  0  0  0
 16 21  1  0  0  0  0
 17 18  2  0  0  0  0
 17 32  1  0  0  0  0
 18 19  1  0  0  0  0
 18 33  1  0  0  0  0
 19 20  2  0  0  0  0
 19 34  1  0  0  0  0
 20 21  1  0  0  0  0
 20 35  1  0  0  0  0
 22 23  1  0  0  0  0
 22 36  1  0  0  0  0
 22 37  1  0  0  0  0
 23 24  1  0  0  0  0
 23 38  1  0  0  0  0
 23 39  1  0  0  0  0
 24 40  1  0  0  0  0
 24 41  1  0  0  0  0
M  END
$$$$
