
 OpenBabel07202414123D

 42 45  0  0  1  0  0  0  0  0999 V2000
    1.1237    0.1345   -0.2250 C   0  0  0  0  0  0  0  0  0  0  0  0
    2.6630    0.2082   -0.3519 C   0  0  3  0  0  0  0  0  0  0  0  0
    3.0229    0.9614   -1.6909 C   0  0  0  0  0  0  0  0  0  0  0  0
    2.1464    1.4551   -2.4089 O   0  0  0  0  0  0  0  0  0  0  0  0
    4.3708    1.0533   -1.9695 N   0  0  0  0  0  0  0  0  0  0  0  0
    4.9999    1.5655   -3.1458 C   0  0  0  0  0  0  0  0  0  0  0  0
    4.3175    2.1023   -4.2297 C   0  0  0  0  0  0  0  0  0  0  0  0
    4.8506    2.2173   -5.4696 N   0  0  0  0  0  0  0  0  0  0  0  0
    6.1612    1.9202   -5.5852 C   0  0  0  0  0  0  0  0  0  0  0  0
    7.0205    1.7458   -4.5039 C   0  0  0  0  0  0  0  0  0  0  0  0
    8.4205    1.8264   -4.6383 C   0  0  0  0  0  0  0  0  0  0  0  0
    9.2500    1.5789   -3.5478 C   0  0  0  0  0  0  0  0  0  0  0  0
    8.6882    1.1857   -2.3434 C   0  0  0  0  0  0  0  0  0  0  0  0
    7.2942    1.1398   -2.1961 C   0  0  0  0  0  0  0  0  0  0  0  0
    6.4290    1.4763   -3.2599 C   0  0  0  0  0  0  0  0  0  0  0  0
    3.1983   -1.2458   -0.3736 C   0  0  0  0  0  0  0  0  0  0  0  0
    3.0887   -1.8969    0.9176 N   0  0  0  0  0  0  0  0  0  0  0  0
    3.4962   -1.2921    2.0893 C   0  0  0  0  0  0  0  0  0  0  0  0
    3.7029   -1.9275    3.1002 O   0  0  0  0  0  0  0  0  0  0  0  0
    3.6090    0.1939    2.0348 C   0  0  0  0  0  0  0  0  0  0  0  0
    4.0399    0.8529    3.1972 C   0  0  0  0  0  0  0  0  0  0  0  0
    4.0184    2.2481    3.2586 C   0  0  0  0  0  0  0  0  0  0  0  0
    3.5625    2.9749    2.1624 C   0  0  0  0  0  0  0  0  0  0  0  0
    3.4539    4.6889    2.2643 Cl  0  0  0  0  0  0  0  0  0  0  0  0
    3.1630    2.3276    0.9900 C   0  0  0  0  0  0  0  0  0  0  0  0
    3.1918    0.9281    0.9001 C   0  0  0  0  0  0  0  0  0  0  0  0
    0.6873   -0.4319   -1.0564 H   0  0  0  0  0  0  0  0  0  0  0  0
    0.6695    1.1326   -0.2346 H   0  0  0  0  0  0  0  0  0  0  0  0
    0.8120   -0.3525    0.7064 H   0  0  0  0  0  0  0  0  0  0  0  0
    4.9918    0.5571   -1.3479 H   0  0  0  0  0  0  0  0  0  0  0  0
    3.2795    2.4304   -4.1772 H   0  0  0  0  0  0  0  0  0  0  0  0
    6.5044    1.7506   -6.6023 H   0  0  0  0  0  0  0  0  0  0  0  0
    8.8714    2.1474   -5.5783 H   0  0  0  0  0  0  0  0  0  0  0  0
   10.3278    1.6915   -3.6338 H   0  0  0  0  0  0  0  0  0  0  0  0
    9.3264    0.9327   -1.4935 H   0  0  0  0  0  0  0  0  0  0  0  0
    6.9206    0.8632   -1.2193 H   0  0  0  0  0  0  0  0  0  0  0  0
    4.2656   -1.2817   -0.6310 H   0  0  0  0  0  0  0  0  0  0  0  0
    2.6711   -1.8642   -1.0979 H   0  0  0  0  0  0  0  0  0  0  0  0
    3.0176   -2.9124    0.9880 H   0  0  0  0  0  0  0  0  0  0  0  0
    4.3580    0.2870    4.0710 H   0  0  0  0  0  0  0  0  0  0  0  0
    4.3176    2.7540    4.1738 H   0  0  0  0  0  0  0  0  0  0  0  0
    2.7864    2.9273    0.1608 H   0  0  0  0  0  0  0  0  0  0  0  0
  1  2  1  0  0  0  0
  1 27  1  0  0  0  0
  1 28  1  0  0  0  0
  1 29  1  0  0  0  0
  2  3  1  0  0  0  0
  2 16  1  0  0  0  0
  2 26  1  0  0  0  0
  3  4  2  0  0  0  0
  3  5  1  0  0  0  0
  5  6  1  0  0  0  0
  5 30  1  0  0  0  0
  6  7  1  0  0  0  0
  6 15  2  0  0  0  0
  7  8  2  0  0  0  0
  7 31  1  0  0  0  0
  8  9  1  0  0  0  0
  9 10  2  0  0  0  0
  9 32  1  0  0  0  0
 10 11  1  0  0  0  0
 10 15  1  0  0  0  0
 11 12  2  0  0  0  0
 11 33  1  0  0  0  0
 12 13  1  0  0  0  0
 12 34  1  0  0  0  0
 13 14  2  0  0  0  0
 13 35  1  0  0  0  0
 14 15  1  0  0  0  0
 14 36  1  0  0  0  0
 16 17  1  0  0  0  0
 16 37  1  0  0  0  0
 16 38  1  0  0  0  0
 17 18  1  0  0  0  0
 17 39  1  0  0  0  0
 18 19  2  0  0  0  0
 18 20  1  0  0  0  0
 20 21  1  0  0  0  0
 20 26  2  0  0  0  0
 21 22  2  0  0  0  0
 21 40  1  0  0  0  0
 22 23  1  0  0  0  0
 22 41  1  0  0  0  0
 23 24  1  0  0  0  0
 23 25  2  0  0  0  0
 25 26  1  0  0  0  0
 25 42  1  0  0  0  0
M  END
$$$$
