
 OpenBabel07202414133D

 48 51  0  0  1  0  0  0  0  0999 V2000
    2.2529    3.7794   -0.1784 C   0  0  0  0  0  0  0  0  0  0  0  0
    2.2535    2.2566   -0.2177 C   0  0  3  0  0  0  0  0  0  0  0  0
    0.9188    1.7300   -0.4792 N   0  0  0  0  0  0  0  0  0  0  0  0
    0.7273    0.3641   -0.5634 C   0  0  0  0  0  0  0  0  0  0  0  0
   -0.2590   -0.1011   -1.1167 O   0  0  0  0  0  0  0  0  0  0  0  0
    1.7634   -0.4971    0.0739 C   0  0  0  0  0  0  0  0  0  0  0  0
    1.7130   -1.8815   -0.1278 C   0  0  0  0  0  0  0  0  0  0  0  0
    2.6614   -2.7103    0.4744 C   0  0  0  0  0  0  0  0  0  0  0  0
    3.6491   -2.1558    1.2872 C   0  0  0  0  0  0  0  0  0  0  0  0
    4.8094   -3.1838    2.0338 Cl  0  0  0  0  0  0  0  0  0  0  0  0
    3.7123   -0.7744    1.4892 C   0  0  0  0  0  0  0  0  0  0  0  0
    2.7791    0.0724    0.8681 C   0  0  0  0  0  0  0  0  0  0  0  0
    2.8722    1.5846    1.0283 C   0  0  3  0  0  0  0  0  0  0  0  0
    2.3158    2.0391    2.3894 C   0  0  0  0  0  0  0  0  0  0  0  0
    3.0754    2.1399    3.3519 O   0  0  0  0  0  0  0  0  0  0  0  0
    0.9493    2.2544    2.4230 N   0  0  0  0  0  0  0  0  0  0  0  0
    0.1393    2.5609    3.5507 C   0  0  0  0  0  0  0  0  0  0  0  0
    0.6428    2.6109    4.8514 C   0  0  0  0  0  0  0  0  0  0  0  0
   -0.1160    2.7432    5.9658 N   0  0  0  0  0  0  0  0  0  0  0  0
   -1.4403    2.8987    5.7823 C   0  0  0  0  0  0  0  0  0  0  0  0
   -2.0556    2.9890    4.5382 C   0  0  0  0  0  0  0  0  0  0  0  0
   -3.4306    3.2772    4.4427 C   0  0  0  0  0  0  0  0  0  0  0  0
   -4.0586    3.3425    3.2048 C   0  0  0  0  0  0  0  0  0  0  0  0
   -3.3121    3.0731    2.0636 C   0  0  0  0  0  0  0  0  0  0  0  0
   -4.1307    2.9679    0.4949 S   0  0  0  0  0  0  0  0  0  0  0  0
   -4.6091    1.2545    0.4467 C   0  0  0  0  0  0  0  0  0  0  0  0
   -5.3352    3.7789    0.5735 O   0  0  0  0  0  0  0  0  0  0  0  0
   -3.1411    3.2004   -0.5354 O   0  0  0  0  0  0  0  0  0  0  0  0
   -1.9333    2.8332    2.1355 C   0  0  0  0  0  0  0  0  0  0  0  0
   -1.2596    2.7897    3.3811 C   0  0  0  0  0  0  0  0  0  0  0  0
    1.8627    4.1792   -1.1216 H   0  0  0  0  0  0  0  0  0  0  0  0
    3.2691    4.1635   -0.0473 H   0  0  0  0  0  0  0  0  0  0  0  0
    1.6237    4.1789    0.6216 H   0  0  0  0  0  0  0  0  0  0  0  0
    2.8537    1.9585   -1.0902 H   0  0  0  0  0  0  0  0  0  0  0  0
    0.2987    2.2370   -1.1081 H   0  0  0  0  0  0  0  0  0  0  0  0
    0.9421   -2.3173   -0.7611 H   0  0  0  0  0  0  0  0  0  0  0  0
    2.6230   -3.7840    0.3064 H   0  0  0  0  0  0  0  0  0  0  0  0
    4.4930   -0.3598    2.1251 H   0  0  0  0  0  0  0  0  0  0  0  0
    3.9363    1.8633    1.0305 H   0  0  0  0  0  0  0  0  0  0  0  0
    0.4686    2.1333    1.5386 H   0  0  0  0  0  0  0  0  0  0  0  0
    1.7007    2.5278    5.0747 H   0  0  0  0  0  0  0  0  0  0  0  0
   -2.0170    2.9505    6.7031 H   0  0  0  0  0  0  0  0  0  0  0  0
   -4.0196    3.4640    5.3396 H   0  0  0  0  0  0  0  0  0  0  0  0
   -5.1177    3.5839    3.1432 H   0  0  0  0  0  0  0  0  0  0  0  0
   -5.2563    1.0456    1.3028 H   0  0  0  0  0  0  0  0  0  0  0  0
   -3.7094    0.6387    0.4875 H   0  0  0  0  0  0  0  0  0  0  0  0
   -5.1494    1.0718   -0.4825 H   0  0  0  0  0  0  0  0  0  0  0  0
   -1.3982    2.6810    1.2026 H   0  0  0  0  0  0  0  0  0  0  0  0
  1  2  1  0  0  0  0
  1 31  1  0  0  0  0
  1 32  1  0  0  0  0
  1 33  1  0  0  0  0
  2  3  1  0  0  0  0
  2 13  1  0  0  0  0
  2 34  1  0  0  0  0
  3  4  1  0  0  0  0
  3 35  1  0  0  0  0
  4  5  2  0  0  0  0
  4  6  1  0  0  0  0
  6  7  1  0  0  0  0
  6 12  2  0  0  0  0
  7  8  2  0  0  0  0
  7 36  1  0  0  0  0
  8  9  1  0  0  0  0
  8 37  1  0  0  0  0
  9 10  1  0  0  0  0
  9 11  2  0  0  0  0
 11 12  1  0  0  0  0
 11 38  1  0  0  0  0
 12 13  1  0  0  0  0
 13 14  1  0  0  0  0
 13 39  1  0  0  0  0
 14 15  2  0  0  0  0
 14 16  1  0  0  0  0
 16 17  1  0  0  0  0
 16 40  1  0  0  0  0
 17 18  1  0  0  0  0
 17 30  2  0  0  0  0
 18 19  2  0  0  0  0
 18 41  1  0  0  0  0
 19 20  1  0  0  0  0
 20 21  2  0  0  0  0
 20 42  1  0  0  0  0
 21 22  1  0  0  0  0
 21 30  1  0  0  0  0
 22 23  2  0  0  0  0
 22 43  1  0  0  0  0
 23 24  1  0  0  0  0
 23 44  1  0  0  0  0
 24 25  1  0  0  0  0
 24 29  2  0  0  0  0
 25 26  1  0  0  0  0
 25 27  2  0  0  0  0
 25 28  2  0  0  0  0
 26 45  1  0  0  0  0
 26 46  1  0  0  0  0
 26 47  1  0  0  0  0
 29 30  1  0  0  0  0
 29 48  1  0  0  0  0
M  END
$$$$
