
 OpenBabel07202414183D

 31 32  0  0  0  0  0  0  0  0999 V2000
    3.9500   -2.7379   -5.4595 F   0  0  0  0  0  0  0  0  0  0  0  0
    3.9090   -1.6333   -4.6659 C   0  0  0  0  0  0  0  0  0  0  0  0
    5.0058   -0.8968   -4.9952 F   0  0  0  0  0  0  0  0  0  0  0  0
    2.8409   -0.9036   -5.0956 F   0  0  0  0  0  0  0  0  0  0  0  0
    3.8364   -1.9352   -3.1956 C   0  0  0  0  0  0  0  0  0  0  0  0
    3.7587   -3.2829   -2.7947 C   0  0  0  0  0  0  0  0  0  0  0  0
    3.7008   -3.5876   -1.4470 C   0  0  0  0  0  0  0  0  0  0  0  0
    3.7020   -2.6541   -0.4851 N   0  0  0  0  0  0  0  0  0  0  0  0
    3.7828   -1.3582   -0.8850 C   0  0  0  0  0  0  0  0  0  0  0  0
    3.8615   -0.9293   -2.2132 C   0  0  0  0  0  0  0  0  0  0  0  0
    3.9346    0.4491   -2.5623 N   0  0  0  0  0  0  0  0  0  0  0  0
    4.2197    1.4857   -1.6812 C   0  0  0  0  0  0  0  0  0  0  0  0
    4.5575    1.3508   -0.5075 O   0  0  0  0  0  0  0  0  0  0  0  0
    4.1068    2.8738   -2.2896 C   0  0  0  0  0  0  0  0  0  0  0  0
    5.3872    3.3658   -2.9192 C   0  0  0  0  0  0  0  0  0  0  0  0
    6.5817    3.4149   -2.1827 C   0  0  0  0  0  0  0  0  0  0  0  0
    7.7553    3.9084   -2.7571 C   0  0  0  0  0  0  0  0  0  0  0  0
    7.7466    4.3731   -4.0712 C   0  0  0  0  0  0  0  0  0  0  0  0
    6.5624    4.3410   -4.8043 C   0  0  0  0  0  0  0  0  0  0  0  0
    6.5420    4.9287   -6.4213 Cl  0  0  0  0  0  0  0  0  0  0  0  0
    5.3880    3.8436   -4.2373 C   0  0  0  0  0  0  0  0  0  0  0  0
    3.7520   -4.0926   -3.5199 H   0  0  0  0  0  0  0  0  0  0  0  0
    3.6518   -4.6146   -1.0970 H   0  0  0  0  0  0  0  0  0  0  0  0
    3.7503   -0.6663   -0.0494 H   0  0  0  0  0  0  0  0  0  0  0  0
    3.8803    0.6993   -3.5450 H   0  0  0  0  0  0  0  0  0  0  0  0
    3.8151    3.5693   -1.4917 H   0  0  0  0  0  0  0  0  0  0  0  0
    3.2814    2.8806   -3.0112 H   0  0  0  0  0  0  0  0  0  0  0  0
    6.6070    3.0700   -1.1488 H   0  0  0  0  0  0  0  0  0  0  0  0
    8.6733    3.9377   -2.1745 H   0  0  0  0  0  0  0  0  0  0  0  0
    8.6583    4.7642   -4.5131 H   0  0  0  0  0  0  0  0  0  0  0  0
    4.4719    3.8454   -4.8231 H   0  0  0  0  0  0  0  0  0  0  0  0
  1  2  1  0  0  0  0
  2  3  1  0  0  0  0
  2  4  1  0  0  0  0
  2  5  1  0  0  0  0
  5  6  1  0  0  0  0
  5 10  2  0  0  0  0
  6  7  2  0  0  0  0
  6 22  1  0  0  0  0
  7  8  1  0  0  0  0
  7 23  1  0  0  0  0
  8  9  2  0  0  0  0
  9 10  1  0  0  0  0
  9 24  1  0  0  0  0
 10 11  1  0  0  0  0
 11 12  1  0  0  0  0
 11 25  1  0  0  0  0
 12 13  2  0  0  0  0
 12 14  1  0  0  0  0
 14 15  1  0  0  0  0
 14 26  1  0  0  0  0
 14 27  1  0  0  0  0
 15 16  1  0  0  0  0
 15 21  2  0  0  0  0
 16 17  2  0  0  0  0
 16 28  1  0  0  0  0
 17 18  1  0  0  0  0
 17 29  1  0  0  0  0
 18 19  2  0  0  0  0
 18 30  1  0  0  0  0
 19 20  1  0  0  0  0
 19 21  1  0  0  0  0
 21 31  1  0  0  0  0
M  END
$$$$
