
 OpenBabel07202414133D

 54 57  0  0  0  0  0  0  0  0999 V2000
    2.9529   -2.2144    5.4249 C   0  0  0  0  0  0  0  0  0  0  0  0
    3.7700   -2.6443    4.2206 C   0  0  0  0  0  0  0  0  0  0  0  0
    3.0122   -2.4786    2.9224 C   0  0  0  0  0  0  0  0  0  0  0  0
    3.0837   -1.3219    2.1142 C   0  0  0  0  0  0  0  0  0  0  0  0
    3.8445   -0.1903    2.5014 N   0  0  0  0  0  0  0  0  0  0  0  0
    3.6884    1.1347    2.0194 C   0  0  0  0  0  0  0  0  0  0  0  0
    2.4067    1.7009    1.8439 C   0  0  0  0  0  0  0  0  0  0  0  0
    2.2271    2.9709    1.2699 C   0  0  0  0  0  0  0  0  0  0  0  0
    0.8418    3.5531    1.0587 C   0  0  0  0  0  0  0  0  0  0  0  0
   -0.0403    2.8615    0.0144 C   0  0  0  0  0  0  0  0  0  0  0  0
   -1.2185    2.6023    0.2516 O   0  0  0  0  0  0  0  0  0  0  0  0
    0.5911    2.6324   -1.1926 N   0  0  0  0  0  0  0  0  0  0  0  0
   -0.0439    1.9788   -2.2891 C   0  0  0  0  0  0  0  0  0  0  0  0
    0.5351    0.7941   -2.7384 C   0  0  0  0  0  0  0  0  0  0  0  0
    0.1128    0.0712   -3.7978 N   0  0  0  0  0  0  0  0  0  0  0  0
   -0.8355    0.6427   -4.5565 C   0  0  0  0  0  0  0  0  0  0  0  0
   -1.3401    1.9159   -4.3301 C   0  0  0  0  0  0  0  0  0  0  0  0
   -2.0454    2.5823   -5.3418 C   0  0  0  0  0  0  0  0  0  0  0  0
   -2.5154    3.8721   -5.1328 C   0  0  0  0  0  0  0  0  0  0  0  0
   -2.3898    4.4538   -3.8734 C   0  0  0  0  0  0  0  0  0  0  0  0
   -1.6681    3.8052   -2.8637 C   0  0  0  0  0  0  0  0  0  0  0  0
   -1.0380    2.5659   -3.1028 C   0  0  0  0  0  0  0  0  0  0  0  0
    3.3649    3.7176    0.9214 C   0  0  0  0  0  0  0  0  0  0  0  0
    4.6412    3.1826    1.1470 C   0  0  0  0  0  0  0  0  0  0  0  0
    6.0257    4.1162    0.7260 Cl  0  0  0  0  0  0  0  0  0  0  0  0
    4.8087    1.9094    1.6892 C   0  0  0  0  0  0  0  0  0  0  0  0
    2.4054   -1.3352    0.8820 C   0  0  0  0  0  0  0  0  0  0  0  0
    1.6233   -2.4301    0.5088 C   0  0  0  0  0  0  0  0  0  0  0  0
    1.0238   -2.4652   -0.8169 N   0  3  0  0  0  0  0  0  0  0  0  0
    1.6353   -1.8730   -1.7138 O   0  5  0  0  0  0  0  0  0  0  0  0
   -0.0197   -3.1140   -0.9644 O   0  0  0  0  0  0  0  0  0  0  0  0
    1.4740   -3.5330    1.3422 C   0  0  0  0  0  0  0  0  0  0  0  0
    2.1797   -3.5546    2.5368 C   0  0  0  0  0  0  0  0  0  0  0  0
    3.3967   -2.6164    6.3409 H   0  0  0  0  0  0  0  0  0  0  0  0
    1.9177   -2.5673    5.3696 H   0  0  0  0  0  0  0  0  0  0  0  0
    2.9347   -1.1209    5.5094 H   0  0  0  0  0  0  0  0  0  0  0  0
    4.0336   -3.7065    4.3304 H   0  0  0  0  0  0  0  0  0  0  0  0
    4.7277   -2.1164    4.1892 H   0  0  0  0  0  0  0  0  0  0  0  0
    4.8228   -0.4463    2.6312 H   0  0  0  0  0  0  0  0  0  0  0  0
    1.5328    1.1326    2.1662 H   0  0  0  0  0  0  0  0  0  0  0  0
    0.9190    4.6042    0.7533 H   0  0  0  0  0  0  0  0  0  0  0  0
    0.3162    3.5485    2.0224 H   0  0  0  0  0  0  0  0  0  0  0  0
    1.5760    2.3984   -1.0891 H   0  0  0  0  0  0  0  0  0  0  0  0
    1.4066    0.3869   -2.2431 H   0  0  0  0  0  0  0  0  0  0  0  0
   -1.1570    0.0435   -5.4030 H   0  0  0  0  0  0  0  0  0  0  0  0
   -2.1462    2.1326   -6.3242 H   0  0  0  0  0  0  0  0  0  0  0  0
   -2.9712    4.4243   -5.9522 H   0  0  0  0  0  0  0  0  0  0  0  0
   -2.8154    5.4372   -3.6901 H   0  0  0  0  0  0  0  0  0  0  0  0
   -1.5778    4.2918   -1.8961 H   0  0  0  0  0  0  0  0  0  0  0  0
    3.2716    4.7068    0.5019 H   0  0  0  0  0  0  0  0  0  0  0  0
    5.8112    1.5156    1.8328 H   0  0  0  0  0  0  0  0  0  0  0  0
    2.5146   -0.4974    0.1985 H   0  0  0  0  0  0  0  0  0  0  0  0
    0.8513   -4.3758    1.0578 H   0  0  0  0  0  0  0  0  0  0  0  0
    2.0912   -4.4334    3.1759 H   0  0  0  0  0  0  0  0  0  0  0  0
  1  2  1  0  0  0  0
  1 34  1  0  0  0  0
  1 35  1  0  0  0  0
  1 36  1  0  0  0  0
  2  3  1  0  0  0  0
  2 37  1  0  0  0  0
  2 38  1  0  0  0  0
  3  4  2  0  0  0  0
  3 33  1  0  0  0  0
  4  5  1  0  0  0  0
  4 27  1  0  0  0  0
  5  6  1  0  0  0  0
  5 39  1  0  0  0  0
  6  7  2  0  0  0  0
  6 26  1  0  0  0  0
  7  8  1  0  0  0  0
  7 40  1  0  0  0  0
  8  9  1  0  0  0  0
  8 23  2  0  0  0  0
  9 10  1  0  0  0  0
  9 41  1  0  0  0  0
  9 42  1  0  0  0  0
 10 11  2  0  0  0  0
 10 12  1  0  0  0  0
 12 13  1  0  0  0  0
 12 43  1  0  0  0  0
 13 14  2  0  0  0  0
 13 22  1  0  0  0  0
 14 15  1  0  0  0  0
 14 44  1  0  0  0  0
 15 16  2  0  0  0  0
 16 17  1  0  0  0  0
 16 45  1  0  0  0  0
 17 18  2  0  0  0  0
 17 22  1  0  0  0  0
 18 19  1  0  0  0  0
 18 46  1  0  0  0  0
 19 20  2  0  0  0  0
 19 47  1  0  0  0  0
 20 21  1  0  0  0  0
 20 48  1  0  0  0  0
 21 22  2  0  0  0  0
 21 49  1  0  0  0  0
 23 24  1  0  0  0  0
 23 50  1  0  0  0  0
 24 25  1  0  0  0  0
 24 26  2  0  0  0  0
 26 51  1  0  0  0  0
 27 28  2  0  0  0  0
 27 52  1  0  0  0  0
 28 29  1  0  0  0  0
 28 32  1  0  0  0  0
 29 30  1  0  0  0  0
 29 31  2  0  0  0  0
 32 33  2  0  0  0  0
 32 53  1  0  0  0  0
 33 54  1  0  0  0  0
M  CHG  2  29   1  30  -1
M  END
$$$$
