
 OpenBabel07202414183D

 66 70  0  0  1  0  0  0  0  0999 V2000
    9.0096   10.7372    5.8320 F   0  0  0  0  0  0  0  0  0  0  0  0
    8.4229   10.0905    4.7843 C   0  0  0  0  0  0  0  0  0  0  0  0
    9.1495   10.4437    3.6851 F   0  0  0  0  0  0  0  0  0  0  0  0
    8.3397    8.5983    4.9849 C   0  0  0  0  0  0  0  0  0  0  0  0
    8.2359    8.0580    6.2735 C   0  0  0  0  0  0  0  0  0  0  0  0
    8.1664    6.6733    6.4713 C   0  0  0  0  0  0  0  0  0  0  0  0
    8.1855    5.7947    5.3866 C   0  0  0  0  0  0  0  0  0  0  0  0
    8.1716    4.2831    5.5285 C   0  0  0  0  0  0  0  0  0  0  0  0
    8.1254    3.6561    6.9326 C   0  0  0  0  0  0  0  0  0  0  0  0
    6.8872    3.8230    7.6834 N   0  0  0  0  0  0  0  0  0  0  0  0
    6.7681    3.2697    8.9496 C   0  0  0  0  0  0  0  0  0  0  0  0
    7.6922    2.6591    9.4883 O   0  0  0  0  0  0  0  0  0  0  0  0
    5.4320    3.4931    9.6827 C   0  0  0  0  0  0  0  0  0  0  0  0
    5.3452    4.8296   10.2466 N   0  0  0  0  0  0  0  0  0  0  0  0
    4.1069    5.1620   10.9632 C   0  0  0  0  0  0  0  0  0  0  0  0
    3.7883    6.5953   10.5079 C   0  0  2  0  0  0  0  0  0  0  0  0
    3.3221    6.4662    9.0318 C   0  0  0  0  0  0  0  0  0  0  0  0
    2.6765    5.5085    8.6230 O   0  0  0  0  0  0  0  0  0  0  0  0
    3.6255    7.5541    8.2534 N   0  0  0  0  0  0  0  0  0  0  0  0
    3.4400    7.7702    6.8717 C   0  0  0  0  0  0  0  0  0  0  0  0
    2.9364    6.8140    5.9910 C   0  0  0  0  0  0  0  0  0  0  0  0
    2.7538    7.0305    4.6665 N   0  0  0  0  0  0  0  0  0  0  0  0
    3.0534    8.2661    4.2072 C   0  0  0  0  0  0  0  0  0  0  0  0
    3.5432    9.3132    4.9935 C   0  0  0  0  0  0  0  0  0  0  0  0
    3.7826   10.5983    4.4657 C   0  0  0  0  0  0  0  0  0  0  0  0
    4.2519   11.6313    5.2789 C   0  0  0  0  0  0  0  0  0  0  0  0
    4.5372   11.3834    6.6104 C   0  0  0  0  0  0  0  0  0  0  0  0
    4.3235   10.1120    7.1337 C   0  0  0  0  0  0  0  0  0  0  0  0
    3.7780    9.0538    6.3572 C   0  0  0  0  0  0  0  0  0  0  0  0
    5.0206    7.4939   10.8112 C   0  0  0  0  0  0  0  0  0  0  0  0
    4.9110    8.8893   10.9403 C   0  0  0  0  0  0  0  0  0  0  0  0
    6.0424    9.6644   11.2294 C   0  0  0  0  0  0  0  0  0  0  0  0
    5.8977   11.3762   11.3442 Cl  0  0  0  0  0  0  0  0  0  0  0  0
    7.2880    9.0736   11.4259 C   0  0  0  0  0  0  0  0  0  0  0  0
    7.4137    7.6920   11.3300 C   0  0  0  0  0  0  0  0  0  0  0  0
    6.2986    6.8995   11.0161 C   0  0  0  0  0  0  0  0  0  0  0  0
    6.4817    5.3896   10.9515 C   0  0  0  0  0  0  0  0  0  0  0  0
    8.2673    6.3425    4.0898 C   0  0  0  0  0  0  0  0  0  0  0  0
    8.3404    7.7266    3.8930 C   0  0  0  0  0  0  0  0  0  0  0  0
    7.4179   10.5034    4.6623 H   0  0  0  0  0  0  0  0  0  0  0  0
    8.2304    8.7151    7.1388 H   0  0  0  0  0  0  0  0  0  0  0  0
    8.1144    6.3035    7.4923 H   0  0  0  0  0  0  0  0  0  0  0  0
    9.0988    3.9260    5.0573 H   0  0  0  0  0  0  0  0  0  0  0  0
    7.3379    3.8918    4.9333 H   0  0  0  0  0  0  0  0  0  0  0  0
    8.9586    4.0168    7.5473 H   0  0  0  0  0  0  0  0  0  0  0  0
    8.2661    2.5736    6.8201 H   0  0  0  0  0  0  0  0  0  0  0  0
    6.1502    4.4255    7.3319 H   0  0  0  0  0  0  0  0  0  0  0  0
    5.3064    2.7117   10.4385 H   0  0  0  0  0  0  0  0  0  0  0  0
    4.6313    3.3690    8.9424 H   0  0  0  0  0  0  0  0  0  0  0  0
    4.2404    5.1342   12.0565 H   0  0  0  0  0  0  0  0  0  0  0  0
    3.2834    4.4722   10.7468 H   0  0  0  0  0  0  0  0  0  0  0  0
    2.9346    6.9856   11.0761 H   0  0  0  0  0  0  0  0  0  0  0  0
    4.0260    8.3183    8.7573 H   0  0  0  0  0  0  0  0  0  0  0  0
    2.6528    5.8163    6.3117 H   0  0  0  0  0  0  0  0  0  0  0  0
    2.8765    8.4008    3.1428 H   0  0  0  0  0  0  0  0  0  0  0  0
    3.5793   10.8084    3.4179 H   0  0  0  0  0  0  0  0  0  0  0  0
    4.3940   12.6294    4.8755 H   0  0  0  0  0  0  0  0  0  0  0  0
    4.9128   12.1712    7.2591 H   0  0  0  0  0  0  0  0  0  0  0  0
    4.5892    9.9849    8.1766 H   0  0  0  0  0  0  0  0  0  0  0  0
    3.9500    9.3848   10.8208 H   0  0  0  0  0  0  0  0  0  0  0  0
    8.1611    9.6760   11.6652 H   0  0  0  0  0  0  0  0  0  0  0  0
    8.3834    7.2278   11.5037 H   0  0  0  0  0  0  0  0  0  0  0  0
    6.5734    4.9899   11.9704 H   0  0  0  0  0  0  0  0  0  0  0  0
    7.4207    5.1961   10.4254 H   0  0  0  0  0  0  0  0  0  0  0  0
    8.2946    5.6894    3.2187 H   0  0  0  0  0  0  0  0  0  0  0  0
    8.4182    8.1183    2.8778 H   0  0  0  0  0  0  0  0  0  0  0  0
  1  2  1  0  0  0  0
  2  3  1  0  0  0  0
  2  4  1  0  0  0  0
  2 40  1  0  0  0  0
  4  5  1  0  0  0  0
  4 39  2  0  0  0  0
  5  6  2  0  0  0  0
  5 41  1  0  0  0  0
  6  7  1  0  0  0  0
  6 42  1  0  0  0  0
  7  8  1  0  0  0  0
  7 38  2  0  0  0  0
  8  9  1  0  0  0  0
  8 43  1  0  0  0  0
  8 44  1  0  0  0  0
  9 10  1  0  0  0  0
  9 45  1  0  0  0  0
  9 46  1  0  0  0  0
 10 11  1  0  0  0  0
 10 47  1  0  0  0  0
 11 12  2  0  0  0  0
 11 13  1  0  0  0  0
 13 14  1  0  0  0  0
 13 48  1  0  0  0  0
 13 49  1  0  0  0  0
 14 15  1  0  0  0  0
 14 37  1  0  0  0  0
 15 16  1  0  0  0  0
 15 50  1  0  0  0  0
 15 51  1  0  0  0  0
 16 30  1  0  0  0  0
 16 17  1  0  0  0  0
 16 52  1  1  0  0  0
 17 18  2  0  0  0  0
 17 19  1  0  0  0  0
 19 20  1  0  0  0  0
 19 53  1  0  0  0  0
 20 21  1  0  0  0  0
 20 29  2  0  0  0  0
 21 22  2  0  0  0  0
 21 54  1  0  0  0  0
 22 23  1  0  0  0  0
 23 24  2  0  0  0  0
 23 55  1  0  0  0  0
 24 25  1  0  0  0  0
 24 29  1  0  0  0  0
 25 26  2  0  0  0  0
 25 56  1  0  0  0  0
 26 27  1  0  0  0  0
 26 57  1  0  0  0  0
 27 28  2  0  0  0  0
 27 58  1  0  0  0  0
 28 29  1  0  0  0  0
 28 59  1  0  0  0  0
 30 31  1  0  0  0  0
 30 36  2  0  0  0  0
 31 32  2  0  0  0  0
 31 60  1  0  0  0  0
 32 33  1  0  0  0  0
 32 34  1  0  0  0  0
 34 35  2  0  0  0  0
 34 61  1  0  0  0  0
 35 36  1  0  0  0  0
 35 62  1  0  0  0  0
 36 37  1  0  0  0  0
 37 63  1  0  0  0  0
 37 64  1  0  0  0  0
 38 39  1  0  0  0  0
 38 65  1  0  0  0  0
 39 66  1  0  0  0  0
M  END
$$$$
