
 OpenBabel07202414143D

 56 58  0  0  1  0  0  0  0  0999 V2000
    1.8597   -0.8604    5.5004 C   0  0  0  0  0  0  0  0  0  0  0  0
    2.6657   -1.8516    4.7677 N   0  0  0  0  0  0  0  0  0  0  0  0
    3.8144   -1.1318    3.7584 S   0  0  0  0  0  0  0  0  0  0  0  0
    3.0797   -0.3543    2.7907 O   0  0  0  0  0  0  0  0  0  0  0  0
    4.8086   -0.5553    4.6319 O   0  0  0  0  0  0  0  0  0  0  0  0
    4.4558   -2.4048    2.9882 O   0  0  0  0  0  0  0  0  0  0  0  0
    5.4974   -2.1387    2.0675 C   0  0  0  0  0  0  0  0  0  0  0  0
    6.7231   -1.4474    2.6743 C   0  0  0  0  0  0  0  0  0  0  0  0
    7.1123   -0.3736    2.2130 O   0  0  0  0  0  0  0  0  0  0  0  0
    7.3403   -2.0791    3.7441 N   0  0  0  0  0  0  0  0  0  0  0  0
    6.9716   -3.3952    4.2744 C   0  0  0  0  0  0  0  0  0  0  0  0
    6.8403   -3.3688    5.8102 C   0  0  0  0  0  0  0  0  0  0  0  0
    8.0741   -2.8226    6.4790 N   0  0  0  0  0  0  0  0  0  0  0  0
    9.4316   -3.8670    6.4920 S   0  0  0  0  0  0  0  0  0  0  0  0
    9.6172   -4.4416    5.1848 O   0  0  0  0  0  0  0  0  0  0  0  0
   10.5176   -3.2229    7.2016 O   0  0  0  0  0  0  0  0  0  0  0  0
    9.0789   -5.2253    7.5170 C   0  0  0  0  0  0  0  0  0  0  0  0
    9.0534   -6.5858    7.0846 C   0  0  0  0  0  0  0  0  0  0  0  0
    8.7649   -7.4461    8.1225 C   0  0  0  0  0  0  0  0  0  0  0  0
    8.5637   -6.6186    9.6080 S   0  0  0  0  0  0  0  0  0  0  0  0
    8.8551   -5.1026    8.8702 C   0  0  0  0  0  0  0  0  0  0  0  0
    8.3324   -1.4226    5.9351 C   0  0  1  0  0  0  0  0  0  0  0  0
    9.4937   -0.6896    6.6055 C   0  0  0  0  0  0  0  0  0  0  0  0
   10.4648   -0.2706    5.9828 O   0  0  0  0  0  0  0  0  0  0  0  0
    9.3349   -0.5012    7.9624 N   0  0  0  0  0  0  0  0  0  0  0  0
   10.3414    0.1867    8.7503 C   0  0  0  0  0  0  0  0  0  0  0  0
   10.1416    1.6875    8.7821 C   0  0  0  0  0  0  0  0  0  0  0  0
   10.7274    2.4938    7.8061 C   0  0  0  0  0  0  0  0  0  0  0  0
   10.5400    3.8721    7.8614 C   0  0  0  0  0  0  0  0  0  0  0  0
    9.7682    4.4130    8.8808 C   0  0  0  0  0  0  0  0  0  0  0  0
    9.2104    3.5448    9.8053 C   0  0  0  0  0  0  0  0  0  0  0  0
    9.3749    2.2019    9.7807 N   0  0  0  0  0  0  0  0  0  0  0  0
    8.4970   -1.4392    4.3996 C   0  0  0  0  0  0  0  0  0  0  0  0
    1.1618   -1.3796    6.1620 H   0  0  0  0  0  0  0  0  0  0  0  0
    1.2739   -0.2589    4.7991 H   0  0  0  0  0  0  0  0  0  0  0  0
    2.4945   -0.2109    6.1096 H   0  0  0  0  0  0  0  0  0  0  0  0
    2.0957   -2.5071    4.2353 H   0  0  0  0  0  0  0  0  0  0  0  0
    5.1075   -1.5312    1.2445 H   0  0  0  0  0  0  0  0  0  0  0  0
    5.8338   -3.0853    1.6292 H   0  0  0  0  0  0  0  0  0  0  0  0
    7.7346   -4.0959    3.9311 H   0  0  0  0  0  0  0  0  0  0  0  0
    6.0421   -3.7712    3.8530 H   0  0  0  0  0  0  0  0  0  0  0  0
    6.5914   -4.3604    6.2001 H   0  0  0  0  0  0  0  0  0  0  0  0
    6.0013   -2.7155    6.0829 H   0  0  0  0  0  0  0  0  0  0  0  0
    9.2518   -6.9208    6.0721 H   0  0  0  0  0  0  0  0  0  0  0  0
    8.6790   -8.5246    8.0878 H   0  0  0  0  0  0  0  0  0  0  0  0
    8.8735   -4.1989    9.4647 H   0  0  0  0  0  0  0  0  0  0  0  0
    7.4383   -0.8250    6.1716 H   0  0  0  0  0  0  0  0  0  0  0  0
    8.5683   -0.9455    8.4494 H   0  0  0  0  0  0  0  0  0  0  0  0
   11.3380   -0.0532    8.3607 H   0  0  0  0  0  0  0  0  0  0  0  0
   10.2872   -0.2089    9.7694 H   0  0  0  0  0  0  0  0  0  0  0  0
   11.3222    2.0542    7.0097 H   0  0  0  0  0  0  0  0  0  0  0  0
   10.9925    4.5158    7.1119 H   0  0  0  0  0  0  0  0  0  0  0  0
    9.6023    5.4817    8.9503 H   0  0  0  0  0  0  0  0  0  0  0  0
    8.5958    3.9221   10.6182 H   0  0  0  0  0  0  0  0  0  0  0  0
    9.3874   -2.0032    4.1003 H   0  0  0  0  0  0  0  0  0  0  0  0
    8.6304   -0.4172    4.0290 H   0  0  0  0  0  0  0  0  0  0  0  0
  1  2  1  0  0  0  0
  1 34  1  0  0  0  0
  1 35  1  0  0  0  0
  1 36  1  0  0  0  0
  2  3  1  0  0  0  0
  2 37  1  0  0  0  0
  3  4  2  0  0  0  0
  3  5  2  0  0  0  0
  3  6  1  0  0  0  0
  6  7  1  0  0  0  0
  7  8  1  0  0  0  0
  7 38  1  0  0  0  0
  7 39  1  0  0  0  0
  8  9  2  0  0  0  0
  8 10  1  0  0  0  0
 10 11  1  0  0  0  0
 10 33  1  0  0  0  0
 11 12  1  0  0  0  0
 11 40  1  0  0  0  0
 11 41  1  0  0  0  0
 12 13  1  0  0  0  0
 12 42  1  0  0  0  0
 12 43  1  0  0  0  0
 13 14  1  0  0  0  0
 13 22  1  0  0  0  0
 14 15  2  0  0  0  0
 14 16  2  0  0  0  0
 14 17  1  0  0  0  0
 17 18  1  0  0  0  0
 17 21  2  0  0  0  0
 18 19  2  0  0  0  0
 18 44  1  0  0  0  0
 19 20  1  0  0  0  0
 19 45  1  0  0  0  0
 20 21  1  0  0  0  0
 21 46  1  0  0  0  0
 22 23  1  0  0  0  0
 22 33  1  0  0  0  0
 22 47  1  1  0  0  0
 23 24  2  0  0  0  0
 23 25  1  0  0  0  0
 25 26  1  0  0  0  0
 25 48  1  0  0  0  0
 26 27  1  0  0  0  0
 26 49  1  0  0  0  0
 26 50  1  0  0  0  0
 27 28  1  0  0  0  0
 27 32  2  0  0  0  0
 28 29  2  0  0  0  0
 28 51  1  0  0  0  0
 29 30  1  0  0  0  0
 29 52  1  0  0  0  0
 30 31  2  0  0  0  0
 30 53  1  0  0  0  0
 31 32  1  0  0  0  0
 31 54  1  0  0  0  0
 33 55  1  0  0  0  0
 33 56  1  0  0  0  0
M  END
$$$$
