
 OpenBabel07202414183D

 47 50  0  0  0  0  0  0  0  0999 V2000
    5.1828   -0.0361    1.2341 F   0  0  0  0  0  0  0  0  0  0  0  0
    4.5428   -1.1563    1.6772 C   0  0  0  0  0  0  0  0  0  0  0  0
    5.4757   -1.8614    2.3755 F   0  0  0  0  0  0  0  0  0  0  0  0
    3.6367   -0.7227    2.5971 F   0  0  0  0  0  0  0  0  0  0  0  0
    3.9071   -1.9658    0.5783 C   0  0  0  0  0  0  0  0  0  0  0  0
    3.9276   -1.4983   -0.7460 C   0  0  0  0  0  0  0  0  0  0  0  0
    3.3231   -2.2354   -1.7545 C   0  0  0  0  0  0  0  0  0  0  0  0
    2.6909   -3.4377   -1.4430 C   0  0  0  0  0  0  0  0  0  0  0  0
    2.6416   -3.9413   -0.1296 C   0  0  0  0  0  0  0  0  0  0  0  0
    1.9991   -5.1553    0.0932 N   0  0  0  0  0  0  0  0  0  0  0  0
    2.3137   -6.0054    1.2702 C   0  0  0  0  0  0  0  0  0  0  0  0
    1.8218   -7.4620    1.0253 C   0  0  0  0  0  0  0  0  0  0  0  0
    0.4278   -7.4804    0.5571 N   0  0  0  0  0  0  0  0  0  0  0  0
   -0.6324   -8.1429    1.1503 C   0  0  0  0  0  0  0  0  0  0  0  0
   -1.8080   -7.8307    0.9800 O   0  0  0  0  0  0  0  0  0  0  0  0
   -0.2763   -9.4009    1.8457 C   0  0  0  0  0  0  0  0  0  0  0  0
   -0.7656  -10.4379    1.1318 C   0  0  0  0  0  0  0  0  0  0  0  0
   -0.1053  -11.7128    1.4788 C   0  0  0  0  0  0  0  0  0  0  0  0
    0.1862  -12.5307    0.6177 O   0  0  0  0  0  0  0  0  0  0  0  0
    0.0797  -11.9357    2.8158 N   0  0  0  0  0  0  0  0  0  0  0  0
   -0.2468  -10.9507    3.7506 C   0  0  0  0  0  0  0  0  0  0  0  0
   -0.5495  -11.3093    5.0541 C   0  0  0  0  0  0  0  0  0  0  0  0
   -0.9263  -10.3120    5.9466 C   0  0  0  0  0  0  0  0  0  0  0  0
   -0.8717   -8.9652    5.5611 C   0  0  0  0  0  0  0  0  0  0  0  0
   -0.5598   -8.6097    4.2473 C   0  0  0  0  0  0  0  0  0  0  0  0
   -0.3399   -9.6132    3.3092 C   0  0  0  0  0  0  0  0  0  0  0  0
    0.1603   -6.6090   -0.5919 C   0  0  0  0  0  0  0  0  0  0  0  0
    0.5580   -5.1719   -0.2688 C   0  0  0  0  0  0  0  0  0  0  0  0
    3.2562   -3.1961    0.8751 C   0  0  0  0  0  0  0  0  0  0  0  0
    4.4195   -0.5593   -0.9947 H   0  0  0  0  0  0  0  0  0  0  0  0
    3.3442   -1.8826   -2.7821 H   0  0  0  0  0  0  0  0  0  0  0  0
    2.2491   -4.0126   -2.2559 H   0  0  0  0  0  0  0  0  0  0  0  0
    1.8251   -5.5942    2.1627 H   0  0  0  0  0  0  0  0  0  0  0  0
    3.3972   -6.0258    1.4453 H   0  0  0  0  0  0  0  0  0  0  0  0
    1.9404   -8.0431    1.9429 H   0  0  0  0  0  0  0  0  0  0  0  0
    2.4335   -7.9271    0.2427 H   0  0  0  0  0  0  0  0  0  0  0  0
   -1.8540  -10.5952    1.2309 H   0  0  0  0  0  0  0  0  0  0  0  0
    0.4646  -12.8300    3.0899 H   0  0  0  0  0  0  0  0  0  0  0  0
   -0.6008  -12.3551    5.3452 H   0  0  0  0  0  0  0  0  0  0  0  0
   -1.2794  -10.5815    6.9390 H   0  0  0  0  0  0  0  0  0  0  0  0
   -1.1188   -8.1931    6.2870 H   0  0  0  0  0  0  0  0  0  0  0  0
   -0.5559   -7.5609    3.9639 H   0  0  0  0  0  0  0  0  0  0  0  0
   -0.8860   -6.6688   -0.9019 H   0  0  0  0  0  0  0  0  0  0  0  0
    0.7670   -6.9911   -1.4234 H   0  0  0  0  0  0  0  0  0  0  0  0
   -0.0375   -4.8007    0.5742 H   0  0  0  0  0  0  0  0  0  0  0  0
    0.3269   -4.5453   -1.1365 H   0  0  0  0  0  0  0  0  0  0  0  0
    3.2488   -3.5297    1.9036 H   0  0  0  0  0  0  0  0  0  0  0  0
  1  2  1  0  0  0  0
  2  3  1  0  0  0  0
  2  4  1  0  0  0  0
  2  5  1  0  0  0  0
  5  6  1  0  0  0  0
  5 29  2  0  0  0  0
  6  7  2  0  0  0  0
  6 30  1  0  0  0  0
  7  8  1  0  0  0  0
  7 31  1  0  0  0  0
  8  9  2  0  0  0  0
  8 32  1  0  0  0  0
  9 10  1  0  0  0  0
  9 29  1  0  0  0  0
 10 11  1  0  0  0  0
 10 28  1  0  0  0  0
 11 12  1  0  0  0  0
 11 33  1  0  0  0  0
 11 34  1  0  0  0  0
 12 13  1  0  0  0  0
 12 35  1  0  0  0  0
 12 36  1  0  0  0  0
 13 14  1  0  0  0  0
 13 27  1  0  0  0  0
 14 15  2  0  0  0  0
 14 16  1  0  0  0  0
 16 17  2  0  0  0  0
 16 26  1  0  0  0  0
 17 18  1  0  0  0  0
 17 37  1  0  0  0  0
 18 19  2  0  0  0  0
 18 20  1  0  0  0  0
 20 21  1  0  0  0  0
 20 38  1  0  0  0  0
 21 22  1  0  0  0  0
 21 26  2  0  0  0  0
 22 23  2  0  0  0  0
 22 39  1  0  0  0  0
 23 24  1  0  0  0  0
 23 40  1  0  0  0  0
 24 25  2  0  0  0  0
 24 41  1  0  0  0  0
 25 26  1  0  0  0  0
 25 42  1  0  0  0  0
 27 28  1  0  0  0  0
 27 43  1  0  0  0  0
 27 44  1  0  0  0  0
 28 45  1  0  0  0  0
 28 46  1  0  0  0  0
 29 47  1  0  0  0  0
M  END
$$$$
