
 OpenBabel07202414193D

 40 44  0  0  1  0  0  0  0  0999 V2000
    1.0085   -0.3894    0.2833 O   0  0  0  0  0  0  0  0  0  0  0  0
    2.1471    0.0389    0.3597 C   0  0  0  0  0  0  0  0  0  0  0  0
    3.0348   -0.1196   -0.6754 N   0  0  0  0  0  0  0  0  0  0  0  0
    4.4020   -0.0241   -0.2214 C   0  0  2  0  0  0  0  0  0  0  0  0
    5.1010    1.0882   -1.0027 C   0  0  0  0  0  0  0  0  0  0  0  0
    6.6060    0.9490   -0.8598 C   0  0  0  0  0  0  0  0  0  0  0  0
    7.0743   -0.2923   -1.3897 O   0  0  0  0  0  0  0  0  0  0  0  0
    6.3657   -1.3969   -1.0036 C   0  0  0  0  0  0  0  0  0  0  0  0
    6.9404   -2.6230   -1.3207 C   0  0  0  0  0  0  0  0  0  0  0  0
    6.2421   -3.7721   -1.0056 C   0  0  0  0  0  0  0  0  0  0  0  0
    5.0448   -3.7676   -0.3862 N   0  0  0  0  0  0  0  0  0  0  0  0
    4.5114   -2.5614   -0.0920 C   0  0  0  0  0  0  0  0  0  0  0  0
    5.1085   -1.3410   -0.4022 C   0  0  0  0  0  0  0  0  0  0  0  0
    4.1620    0.3856    1.2599 C   0  0  0  0  0  0  0  0  0  0  0  0
    5.0518    0.5350    2.0939 O   0  0  0  0  0  0  0  0  0  0  0  0
    2.8062    0.5725    1.4384 N   0  0  0  0  0  0  0  0  0  0  0  0
    2.1130    0.8151    2.6551 C   0  0  0  0  0  0  0  0  0  0  0  0
    2.5551    0.2706    3.8578 C   0  0  0  0  0  0  0  0  0  0  0  0
    1.7824    0.1662    4.9647 N   0  0  0  0  0  0  0  0  0  0  0  0
    0.5244    0.6583    4.8785 C   0  0  0  0  0  0  0  0  0  0  0  0
    0.0228    1.3640    3.7851 C   0  0  0  0  0  0  0  0  0  0  0  0
   -1.2586    1.9491    3.7929 C   0  0  0  0  0  0  0  0  0  0  0  0
   -1.7085    2.7104    2.7180 C   0  0  0  0  0  0  0  0  0  0  0  0
   -0.8784    2.9053    1.6236 C   0  0  0  0  0  0  0  0  0  0  0  0
    0.3827    2.3004    1.5898 C   0  0  0  0  0  0  0  0  0  0  0  0
    0.8544    1.4867    2.6525 C   0  0  0  0  0  0  0  0  0  0  0  0
    2.7415   -0.6914   -1.4584 H   0  0  0  0  0  0  0  0  0  0  0  0
    4.7743    2.0824   -0.6769 H   0  0  0  0  0  0  0  0  0  0  0  0
    4.8462    0.9979   -2.0689 H   0  0  0  0  0  0  0  0  0  0  0  0
    6.9395    1.0533    0.1782 H   0  0  0  0  0  0  0  0  0  0  0  0
    7.0953    1.7414   -1.4373 H   0  0  0  0  0  0  0  0  0  0  0  0
    7.9013   -2.6782   -1.8193 H   0  0  0  0  0  0  0  0  0  0  0  0
    6.6327   -4.7539   -1.2573 H   0  0  0  0  0  0  0  0  0  0  0  0
    3.5298   -2.6207    0.3735 H   0  0  0  0  0  0  0  0  0  0  0  0
    3.5357   -0.1838    3.9648 H   0  0  0  0  0  0  0  0  0  0  0  0
   -0.0913    0.4754    5.7563 H   0  0  0  0  0  0  0  0  0  0  0  0
   -1.9219    1.8061    4.6478 H   0  0  0  0  0  0  0  0  0  0  0  0
   -2.6998    3.1597    2.7380 H   0  0  0  0  0  0  0  0  0  0  0  0
   -1.2040    3.5241    0.7915 H   0  0  0  0  0  0  0  0  0  0  0  0
    1.0080    2.4920    0.7216 H   0  0  0  0  0  0  0  0  0  0  0  0
  1  2  2  0  0  0  0
  2  3  1  0  0  0  0
  2 16  1  0  0  0  0
  3  4  1  0  0  0  0
  3 27  1  0  0  0  0
  4  5  1  0  0  0  0
  4 13  1  6  0  0  0
  4 14  1  0  0  0  0
  5  6  1  0  0  0  0
  5 28  1  0  0  0  0
  5 29  1  0  0  0  0
  6  7  1  0  0  0  0
  6 30  1  0  0  0  0
  6 31  1  0  0  0  0
  7  8  1  0  0  0  0
  8  9  1  0  0  0  0
  8 13  2  0  0  0  0
  9 10  2  0  0  0  0
  9 32  1  0  0  0  0
 10 11  1  0  0  0  0
 10 33  1  0  0  0  0
 11 12  2  0  0  0  0
 12 13  1  0  0  0  0
 12 34  1  0  0  0  0
 14 15  2  0  0  0  0
 14 16  1  0  0  0  0
 16 17  1  0  0  0  0
 17 18  1  0  0  0  0
 17 26  2  0  0  0  0
 18 19  2  0  0  0  0
 18 35  1  0  0  0  0
 19 20  1  0  0  0  0
 20 21  2  0  0  0  0
 20 36  1  0  0  0  0
 21 22  1  0  0  0  0
 21 26  1  0  0  0  0
 22 23  2  0  0  0  0
 22 37  1  0  0  0  0
 23 24  1  0  0  0  0
 23 38  1  0  0  0  0
 24 25  2  0  0  0  0
 24 39  1  0  0  0  0
 25 26  1  0  0  0  0
 25 40  1  0  0  0  0
M  END
$$$$
