
 OpenBabel07202414123D

 52 55  0  0  0  0  0  0  0  0999 V2000
    0.7677    0.2556    2.6145 C   0  0  0  0  0  0  0  0  0  0  0  0
    2.2879    0.1598    2.7719 C   0  0  0  0  0  0  0  0  0  0  0  0
    2.6378   -1.1236    3.5293 C   0  0  0  0  0  0  0  0  0  0  0  0
    2.9385    0.2369    1.3760 C   0  0  0  0  0  0  0  0  0  0  0  0
    4.3980    0.1765    1.3811 N   0  0  0  0  0  0  0  0  0  0  0  0
    5.0031   -1.0597    1.2765 C   0  0  0  0  0  0  0  0  0  0  0  0
    6.3286   -1.2743    1.2237 C   0  0  0  0  0  0  0  0  0  0  0  0
    7.1963   -0.0620    1.2130 C   0  0  0  0  0  0  0  0  0  0  0  0
    8.5925   -0.1050    1.0541 C   0  0  0  0  0  0  0  0  0  0  0  0
    9.3545    1.0730    1.0006 C   0  0  0  0  0  0  0  0  0  0  0  0
    8.7446    2.3190    1.1131 C   0  0  0  0  0  0  0  0  0  0  0  0
    7.3685    2.3907    1.2840 C   0  0  0  0  0  0  0  0  0  0  0  0
    6.6016    1.2150    1.3302 C   0  0  0  0  0  0  0  0  0  0  0  0
    5.1280    1.3553    1.4573 C   0  0  0  0  0  0  0  0  0  0  0  0
    4.6199    2.4653    1.5952 O   0  0  0  0  0  0  0  0  0  0  0  0
    6.8757   -2.5531    1.1441 N   0  0  0  0  0  0  0  0  0  0  0  0
    6.1931   -3.7443    1.1214 C   0  0  0  0  0  0  0  0  0  0  0  0
    4.9729   -3.8834    1.2158 O   0  0  0  0  0  0  0  0  0  0  0  0
    6.8830   -4.8870    0.9096 N   0  0  0  0  0  0  0  0  0  0  0  0
    8.2135   -5.0633    0.7294 C   0  0  0  0  0  0  0  0  0  0  0  0
    9.2099   -4.2424    0.9426 N   0  0  0  0  0  0  0  0  0  0  0  0
   10.3764   -4.8501    0.4763 C   0  0  0  0  0  0  0  0  0  0  0  0
   11.6837   -4.3243    0.5216 C   0  0  0  0  0  0  0  0  0  0  0  0
   12.7161   -4.9823   -0.1661 C   0  0  0  0  0  0  0  0  0  0  0  0
   12.4652   -6.1484   -0.8863 C   0  0  0  0  0  0  0  0  0  0  0  0
   11.2168   -6.7642   -0.8164 C   0  0  0  0  0  0  0  0  0  0  0  0
   10.1920   -6.0926   -0.1377 C   0  0  0  0  0  0  0  0  0  0  0  0
    8.5669   -6.5923    0.0788 S   0  0  0  0  0  0  0  0  0  0  0  0
   13.5030   -6.6395   -1.6348 O   0  0  0  0  0  0  0  0  0  0  0  0
   13.0932   -7.2829   -2.8445 C   0  0  0  0  0  0  0  0  0  0  0  0
    0.2701    0.2473    3.5895 H   0  0  0  0  0  0  0  0  0  0  0  0
    0.3789   -0.5862    2.0297 H   0  0  0  0  0  0  0  0  0  0  0  0
    0.4863    1.1806    2.1007 H   0  0  0  0  0  0  0  0  0  0  0  0
    2.6302    1.0116    3.3725 H   0  0  0  0  0  0  0  0  0  0  0  0
    2.3814   -2.0142    2.9451 H   0  0  0  0  0  0  0  0  0  0  0  0
    2.0933   -1.1770    4.4782 H   0  0  0  0  0  0  0  0  0  0  0  0
    3.7044   -1.1652    3.7704 H   0  0  0  0  0  0  0  0  0  0  0  0
    2.6366    1.1800    0.8995 H   0  0  0  0  0  0  0  0  0  0  0  0
    2.5522   -0.5611    0.7279 H   0  0  0  0  0  0  0  0  0  0  0  0
    4.2900   -1.8726    1.2538 H   0  0  0  0  0  0  0  0  0  0  0  0
    9.1258   -1.0450    0.9506 H   0  0  0  0  0  0  0  0  0  0  0  0
   10.4319    1.0164    0.8609 H   0  0  0  0  0  0  0  0  0  0  0  0
    9.3333    3.2313    1.0604 H   0  0  0  0  0  0  0  0  0  0  0  0
    6.8848    3.3637    1.3646 H   0  0  0  0  0  0  0  0  0  0  0  0
    7.8848   -2.6461    1.1044 H   0  0  0  0  0  0  0  0  0  0  0  0
    6.2917   -5.6906    0.7536 H   0  0  0  0  0  0  0  0  0  0  0  0
   11.8796   -3.3951    1.0473 H   0  0  0  0  0  0  0  0  0  0  0  0
   13.7151   -4.5511   -0.1734 H   0  0  0  0  0  0  0  0  0  0  0  0
   11.0122   -7.7132   -1.2977 H   0  0  0  0  0  0  0  0  0  0  0  0
   13.9681   -7.3796   -3.4934 H   0  0  0  0  0  0  0  0  0  0  0  0
   12.3424   -6.6924   -3.3847 H   0  0  0  0  0  0  0  0  0  0  0  0
   12.7168   -8.2904   -2.6392 H   0  0  0  0  0  0  0  0  0  0  0  0
  1  2  1  0  0  0  0
  1 31  1  0  0  0  0
  1 32  1  0  0  0  0
  1 33  1  0  0  0  0
  2  3  1  0  0  0  0
  2  4  1  0  0  0  0
  2 34  1  0  0  0  0
  3 35  1  0  0  0  0
  3 36  1  0  0  0  0
  3 37  1  0  0  0  0
  4  5  1  0  0  0  0
  4 38  1  0  0  0  0
  4 39  1  0  0  0  0
  5  6  1  0  0  0  0
  5 14  1  0  0  0  0
  6  7  2  0  0  0  0
  6 40  1  0  0  0  0
  7  8  1  0  0  0  0
  7 16  1  0  0  0  0
  8  9  1  0  0  0  0
  8 13  2  0  0  0  0
  9 10  2  0  0  0  0
  9 41  1  0  0  0  0
 10 11  1  0  0  0  0
 10 42  1  0  0  0  0
 11 12  2  0  0  0  0
 11 43  1  0  0  0  0
 12 13  1  0  0  0  0
 12 44  1  0  0  0  0
 13 14  1  0  0  0  0
 14 15  2  0  0  0  0
 16 17  1  0  0  0  0
 16 45  1  0  0  0  0
 17 18  2  0  0  0  0
 17 19  1  0  0  0  0
 19 20  1  0  0  0  0
 19 46  1  0  0  0  0
 20 21  2  0  0  0  0
 20 28  1  0  0  0  0
 21 22  1  0  0  0  0
 22 23  1  0  0  0  0
 22 27  2  0  0  0  0
 23 24  2  0  0  0  0
 23 47  1  0  0  0  0
 24 25  1  0  0  0  0
 24 48  1  0  0  0  0
 25 26  2  0  0  0  0
 25 29  1  0  0  0  0
 26 27  1  0  0  0  0
 26 49  1  0  0  0  0
 27 28  1  0  0  0  0
 29 30  1  0  0  0  0
 30 50  1  0  0  0  0
 30 51  1  0  0  0  0
 30 52  1  0  0  0  0
M  END
$$$$
