
 OpenBabel07202414183D

 49 52  0  0  0  0  0  0  0  0999 V2000
    0.5134   -0.5918   -0.4717 F   0  0  0  0  0  0  0  0  0  0  0  0
   -0.1772   -1.7166   -0.1355 C   0  0  0  0  0  0  0  0  0  0  0  0
   -0.1517   -1.7750    1.2250 F   0  0  0  0  0  0  0  0  0  0  0  0
   -1.4726   -1.4798   -0.4761 F   0  0  0  0  0  0  0  0  0  0  0  0
    0.3706   -2.9740   -0.7683 C   0  0  0  0  0  0  0  0  0  0  0  0
    1.4817   -2.9387   -1.6316 C   0  0  0  0  0  0  0  0  0  0  0  0
    2.0311   -4.1129   -2.1845 C   0  0  0  0  0  0  0  0  0  0  0  0
    3.1160   -3.9620   -3.0743 N   0  0  0  0  0  0  0  0  0  0  0  0
    3.3895   -4.5712   -4.3135 C   0  0  0  0  0  0  0  0  0  0  0  0
    4.7065   -4.5956   -4.7888 C   0  0  0  0  0  0  0  0  0  0  0  0
    5.0225   -5.2689   -5.9695 C   0  0  0  0  0  0  0  0  0  0  0  0
    6.6500   -5.2885   -6.5307 Cl  0  0  0  0  0  0  0  0  0  0  0  0
    4.0399   -5.9455   -6.6905 C   0  0  0  0  0  0  0  0  0  0  0  0
    2.7162   -5.9318   -6.2395 C   0  0  0  0  0  0  0  0  0  0  0  0
    1.6480   -6.7259   -6.9524 C   0  0  0  0  0  0  0  0  0  0  0  0
    0.4173   -5.9261   -7.3398 C   0  0  0  0  0  0  0  0  0  0  0  0
   -0.7115   -6.3781   -7.1595 O   0  0  0  0  0  0  0  0  0  0  0  0
    0.6930   -4.7385   -7.9896 N   0  0  0  0  0  0  0  0  0  0  0  0
   -0.3053   -3.8486   -8.4446 C   0  0  0  0  0  0  0  0  0  0  0  0
   -1.4627   -3.6145   -7.6980 C   0  0  0  0  0  0  0  0  0  0  0  0
   -2.4388   -2.7506   -8.0505 N   0  0  0  0  0  0  0  0  0  0  0  0
   -2.2755   -2.1122   -9.2310 C   0  0  0  0  0  0  0  0  0  0  0  0
   -1.1750   -2.2802  -10.0759 C   0  0  0  0  0  0  0  0  0  0  0  0
   -1.0998   -1.6218  -11.3217 C   0  0  0  0  0  0  0  0  0  0  0  0
   -0.0215   -1.8384  -12.1728 C   0  0  0  0  0  0  0  0  0  0  0  0
    0.9962   -2.7050  -11.7950 C   0  0  0  0  0  0  0  0  0  0  0  0
    0.9387   -3.3545  -10.5609 C   0  0  0  0  0  0  0  0  0  0  0  0
   -0.1482   -3.1605   -9.6731 C   0  0  0  0  0  0  0  0  0  0  0  0
    2.4051   -5.2282   -5.0638 C   0  0  0  0  0  0  0  0  0  0  0  0
    1.4381   -5.3425   -1.8372 C   0  0  0  0  0  0  0  0  0  0  0  0
    2.1263   -6.8731   -2.2712 Cl  0  0  0  0  0  0  0  0  0  0  0  0
    0.3109   -5.3842   -1.0094 C   0  0  0  0  0  0  0  0  0  0  0  0
   -0.2226   -4.2095   -0.4819 C   0  0  0  0  0  0  0  0  0  0  0  0
    1.9225   -1.9745   -1.8852 H   0  0  0  0  0  0  0  0  0  0  0  0
    3.8180   -3.3011   -2.7608 H   0  0  0  0  0  0  0  0  0  0  0  0
    5.4979   -4.1095   -4.2259 H   0  0  0  0  0  0  0  0  0  0  0  0
    4.3142   -6.4972   -7.5859 H   0  0  0  0  0  0  0  0  0  0  0  0
    1.3311   -7.5387   -6.2882 H   0  0  0  0  0  0  0  0  0  0  0  0
    2.0440   -7.1895   -7.8645 H   0  0  0  0  0  0  0  0  0  0  0  0
    1.6323   -4.6095   -8.3402 H   0  0  0  0  0  0  0  0  0  0  0  0
   -1.6275   -4.1026   -6.7409 H   0  0  0  0  0  0  0  0  0  0  0  0
   -3.0907   -1.4475   -9.4920 H   0  0  0  0  0  0  0  0  0  0  0  0
   -1.8953   -0.9508  -11.6334 H   0  0  0  0  0  0  0  0  0  0  0  0
    0.0154   -1.3423  -13.1391 H   0  0  0  0  0  0  0  0  0  0  0  0
    1.8298   -2.8923  -12.4684 H   0  0  0  0  0  0  0  0  0  0  0  0
    1.7407   -4.0458  -10.3262 H   0  0  0  0  0  0  0  0  0  0  0  0
    1.3729   -5.2149   -4.7164 H   0  0  0  0  0  0  0  0  0  0  0  0
   -0.1417   -6.3392   -0.7499 H   0  0  0  0  0  0  0  0  0  0  0  0
   -1.0917   -4.2635    0.1734 H   0  0  0  0  0  0  0  0  0  0  0  0
  1  2  1  0  0  0  0
  2  3  1  0  0  0  0
  2  4  1  0  0  0  0
  2  5  1  0  0  0  0
  5  6  2  0  0  0  0
  5 33  1  0  0  0  0
  6  7  1  0  0  0  0
  6 34  1  0  0  0  0
  7  8  1  0  0  0  0
  7 30  2  0  0  0  0
  8  9  1  0  0  0  0
  8 35  1  0  0  0  0
  9 10  2  0  0  0  0
  9 29  1  0  0  0  0
 10 11  1  0  0  0  0
 10 36  1  0  0  0  0
 11 12  1  0  0  0  0
 11 13  2  0  0  0  0
 13 14  1  0  0  0  0
 13 37  1  0  0  0  0
 14 15  1  0  0  0  0
 14 29  2  0  0  0  0
 15 16  1  0  0  0  0
 15 38  1  0  0  0  0
 15 39  1  0  0  0  0
 16 17  2  0  0  0  0
 16 18  1  0  0  0  0
 18 19  1  0  0  0  0
 18 40  1  0  0  0  0
 19 20  2  0  0  0  0
 19 28  1  0  0  0  0
 20 21  1  0  0  0  0
 20 41  1  0  0  0  0
 21 22  2  0  0  0  0
 22 23  1  0  0  0  0
 22 42  1  0  0  0  0
 23 24  2  0  0  0  0
 23 28  1  0  0  0  0
 24 25  1  0  0  0  0
 24 43  1  0  0  0  0
 25 26  2  0  0  0  0
 25 44  1  0  0  0  0
 26 27  1  0  0  0  0
 26 45  1  0  0  0  0
 27 28  2  0  0  0  0
 27 46  1  0  0  0  0
 29 47  1  0  0  0  0
 30 31  1  0  0  0  0
 30 32  1  0  0  0  0
 32 33  2  0  0  0  0
 32 48  1  0  0  0  0
 33 49  1  0  0  0  0
M  END
$$$$
