
 OpenBabel07202414173D

 45 48  0  0  0  0  0  0  0  0999 V2000
    7.3460   -2.1658    3.7940 Cl  0  0  0  0  0  0  0  0  0  0  0  0
    8.1862   -2.2135    2.3006 C   0  0  0  0  0  0  0  0  0  0  0  0
    8.9564   -3.3077    1.9492 C   0  0  0  0  0  0  0  0  0  0  0  0
    9.6409   -3.4038    0.7860 N   0  0  0  0  0  0  0  0  0  0  0  0
    9.5371   -2.3596   -0.0731 C   0  0  0  0  0  0  0  0  0  0  0  0
   10.5717   -2.4775   -1.6677 Br  0  0  0  0  0  0  0  0  0  0  0  0
    8.7516   -1.2190    0.1680 C   0  0  0  0  0  0  0  0  0  0  0  0
    8.6319   -0.1594   -0.7548 N   0  0  0  0  0  0  0  0  0  0  0  0
    8.6627    1.2264   -0.5266 C   0  0  0  0  0  0  0  0  0  0  0  0
    7.9947    2.0797   -1.4244 C   0  0  0  0  0  0  0  0  0  0  0  0
    7.9903    3.4602   -1.2011 C   0  0  0  0  0  0  0  0  0  0  0  0
    7.1229    4.4823   -2.2786 Cl  0  0  0  0  0  0  0  0  0  0  0  0
    8.6318    4.0081   -0.0947 C   0  0  0  0  0  0  0  0  0  0  0  0
    9.3038    3.1691    0.8066 C   0  0  0  0  0  0  0  0  0  0  0  0
   10.0393    3.7324    1.9911 C   0  0  0  0  0  0  0  0  0  0  0  0
   11.5520    3.4841    1.9530 C   0  0  0  0  0  0  0  0  0  0  0  0
   12.0666    2.3972    1.7207 O   0  0  0  0  0  0  0  0  0  0  0  0
   12.2325    4.6195    2.3096 N   0  0  0  0  0  0  0  0  0  0  0  0
   13.6166    4.8503    2.3689 C   0  0  0  0  0  0  0  0  0  0  0  0
   13.9948    5.5854    3.4940 C   0  0  0  0  0  0  0  0  0  0  0  0
   14.8956    6.5761    3.4850 N   0  0  0  0  0  0  0  0  0  0  0  0
   15.5145    6.7825    2.3057 C   0  0  0  0  0  0  0  0  0  0  0  0
   15.4031    5.9477    1.1919 C   0  0  0  0  0  0  0  0  0  0  0  0
   16.2173    6.1511    0.0648 C   0  0  0  0  0  0  0  0  0  0  0  0
   16.1526    5.2833   -1.0205 C   0  0  0  0  0  0  0  0  0  0  0  0
   15.2394    4.2345   -1.0101 C   0  0  0  0  0  0  0  0  0  0  0  0
   14.3663    4.0655    0.0802 C   0  0  0  0  0  0  0  0  0  0  0  0
   14.4404    4.9114    1.2160 C   0  0  0  0  0  0  0  0  0  0  0  0
    9.2852    1.7867    0.5950 C   0  0  0  0  0  0  0  0  0  0  0  0
    8.0949   -1.1562    1.4042 C   0  0  0  0  0  0  0  0  0  0  0  0
    9.0472   -4.1684    2.6068 H   0  0  0  0  0  0  0  0  0  0  0  0
    8.8600   -0.4088   -1.7137 H   0  0  0  0  0  0  0  0  0  0  0  0
    7.4794    1.6663   -2.2767 H   0  0  0  0  0  0  0  0  0  0  0  0
    8.6100    5.0807    0.0601 H   0  0  0  0  0  0  0  0  0  0  0  0
    9.6390    3.3151    2.9229 H   0  0  0  0  0  0  0  0  0  0  0  0
    9.8432    4.8125    2.0427 H   0  0  0  0  0  0  0  0  0  0  0  0
   11.6911    5.3085    2.8184 H   0  0  0  0  0  0  0  0  0  0  0  0
   13.4807    5.4355    4.4409 H   0  0  0  0  0  0  0  0  0  0  0  0
   16.1337    7.6734    2.2834 H   0  0  0  0  0  0  0  0  0  0  0  0
   16.9317    6.9714    0.0448 H   0  0  0  0  0  0  0  0  0  0  0  0
   16.8283    5.4178   -1.8619 H   0  0  0  0  0  0  0  0  0  0  0  0
   15.2085    3.5401   -1.8467 H   0  0  0  0  0  0  0  0  0  0  0  0
   13.6838    3.2213    0.0564 H   0  0  0  0  0  0  0  0  0  0  0  0
    9.8256    1.1421    1.2888 H   0  0  0  0  0  0  0  0  0  0  0  0
    7.4835   -0.2916    1.6510 H   0  0  0  0  0  0  0  0  0  0  0  0
  1  2  1  0  0  0  0
  2  3  2  0  0  0  0
  2 30  1  0  0  0  0
  3  4  1  0  0  0  0
  3 31  1  0  0  0  0
  4  5  2  0  0  0  0
  5  6  1  0  0  0  0
  5  7  1  0  0  0  0
  7  8  1  0  0  0  0
  7 30  2  0  0  0  0
  8  9  1  0  0  0  0
  8 32  1  0  0  0  0
  9 10  2  0  0  0  0
  9 29  1  0  0  0  0
 10 11  1  0  0  0  0
 10 33  1  0  0  0  0
 11 12  1  0  0  0  0
 11 13  2  0  0  0  0
 13 14  1  0  0  0  0
 13 34  1  0  0  0  0
 14 15  1  0  0  0  0
 14 29  2  0  0  0  0
 15 16  1  0  0  0  0
 15 35  1  0  0  0  0
 15 36  1  0  0  0  0
 16 17  2  0  0  0  0
 16 18  1  0  0  0  0
 18 19  1  0  0  0  0
 18 37  1  0  0  0  0
 19 20  2  0  0  0  0
 19 28  1  0  0  0  0
 20 21  1  0  0  0  0
 20 38  1  0  0  0  0
 21 22  2  0  0  0  0
 22 23  1  0  0  0  0
 22 39  1  0  0  0  0
 23 24  2  0  0  0  0
 23 28  1  0  0  0  0
 24 25  1  0  0  0  0
 24 40  1  0  0  0  0
 25 26  2  0  0  0  0
 25 41  1  0  0  0  0
 26 27  1  0  0  0  0
 26 42  1  0  0  0  0
 27 28  2  0  0  0  0
 27 43  1  0  0  0  0
 29 44  1  0  0  0  0
 30 45  1  0  0  0  0
M  END
$$$$
