
 OpenBabel07202414193D

 48 52  0  0  1  0  0  0  0  0999 V2000
    1.2312    0.4001    0.3412 O   0  0  0  0  0  0  0  0  0  0  0  0
    2.3131   -0.0651   -0.0307 C   0  0  0  0  0  0  0  0  0  0  0  0
    2.8505   -1.3373    0.6157 C   0  0  0  0  0  0  0  0  0  0  0  0
    3.7810   -1.0819    1.7853 C   0  0  0  0  0  0  0  0  0  0  0  0
    3.5283   -0.0045    2.6411 C   0  0  0  0  0  0  0  0  0  0  0  0
    4.2910    0.3295    3.7021 N   0  0  0  0  0  0  0  0  0  0  0  0
    5.3569   -0.4568    3.9483 C   0  0  0  0  0  0  0  0  0  0  0  0
    5.7069   -1.5747    3.1925 C   0  0  0  0  0  0  0  0  0  0  0  0
    6.8341   -2.3471    3.5230 C   0  0  0  0  0  0  0  0  0  0  0  0
    7.1741   -3.4659    2.7678 C   0  0  0  0  0  0  0  0  0  0  0  0
    6.3856   -3.8266    1.6826 C   0  0  0  0  0  0  0  0  0  0  0  0
    5.2618   -3.0652    1.3474 C   0  0  0  0  0  0  0  0  0  0  0  0
    4.8960   -1.9129    2.0848 C   0  0  0  0  0  0  0  0  0  0  0  0
    3.0904    0.5551   -1.0015 N   0  0  0  0  0  0  0  0  0  0  0  0
    4.4192    0.0724   -1.3799 C   0  0  0  0  0  0  0  0  0  0  0  0
    5.2567    1.0284   -2.1872 C   0  0  0  0  0  0  0  0  0  0  0  0
    6.6505    0.8777   -2.2054 C   0  0  0  0  0  0  0  0  0  0  0  0
    7.4455    1.7578   -2.9365 C   0  0  0  0  0  0  0  0  0  0  0  0
    6.8543    2.7861   -3.6668 C   0  0  0  0  0  0  0  0  0  0  0  0
    5.4654    2.9218   -3.6894 C   0  0  0  0  0  0  0  0  0  0  0  0
    4.6581    2.0415   -2.9566 C   0  0  0  0  0  0  0  0  0  0  0  0
    3.1459    2.1749   -2.9509 C   0  0  1  0  0  0  0  0  0  0  0  0
    2.4480    1.3281   -4.0043 C   0  0  0  0  0  0  0  0  0  0  0  0
    2.8189    0.1231   -4.5764 C   0  0  0  0  0  0  0  0  0  0  0  0
    1.8509   -0.3732   -5.4969 C   0  0  0  0  0  0  0  0  0  0  0  0
    0.7737    0.4730   -5.6163 C   0  0  0  0  0  0  0  0  0  0  0  0
    0.9330    1.8571   -4.6292 S   0  0  0  0  0  0  0  0  0  0  0  0
    2.6329    1.8458   -1.5337 C   0  0  0  0  0  0  0  0  0  0  0  0
    3.3242   -1.9320   -0.1690 H   0  0  0  0  0  0  0  0  0  0  0  0
    1.9968   -1.9301    0.9657 H   0  0  0  0  0  0  0  0  0  0  0  0
    2.6765    0.6576    2.4946 H   0  0  0  0  0  0  0  0  0  0  0  0
    5.9446   -0.1525    4.8105 H   0  0  0  0  0  0  0  0  0  0  0  0
    7.4536   -2.0808    4.3763 H   0  0  0  0  0  0  0  0  0  0  0  0
    8.0459   -4.0573    3.0321 H   0  0  0  0  0  0  0  0  0  0  0  0
    6.6418   -4.7047    1.0951 H   0  0  0  0  0  0  0  0  0  0  0  0
    4.6722   -3.4021    0.4999 H   0  0  0  0  0  0  0  0  0  0  0  0
    4.2737   -0.8463   -1.9604 H   0  0  0  0  0  0  0  0  0  0  0  0
    4.9669   -0.1850   -0.4703 H   0  0  0  0  0  0  0  0  0  0  0  0
    7.1253    0.0785   -1.6397 H   0  0  0  0  0  0  0  0  0  0  0  0
    8.5266    1.6449   -2.9305 H   0  0  0  0  0  0  0  0  0  0  0  0
    7.4779    3.4839   -4.2200 H   0  0  0  0  0  0  0  0  0  0  0  0
    5.0195    3.7273   -4.2685 H   0  0  0  0  0  0  0  0  0  0  0  0
    2.9039    3.2306   -3.1405 H   0  0  0  0  0  0  0  0  0  0  0  0
    3.7405   -0.3952   -4.3437 H   0  0  0  0  0  0  0  0  0  0  0  0
    1.9412   -1.3044   -6.0427 H   0  0  0  0  0  0  0  0  0  0  0  0
   -0.1016    0.3468   -6.2388 H   0  0  0  0  0  0  0  0  0  0  0  0
    1.5379    1.8934   -1.5013 H   0  0  0  0  0  0  0  0  0  0  0  0
    2.9972    2.6059   -0.8287 H   0  0  0  0  0  0  0  0  0  0  0  0
  1  2  2  0  0  0  0
  2  3  1  0  0  0  0
  2 14  1  0  0  0  0
  3  4  1  0  0  0  0
  3 29  1  0  0  0  0
  3 30  1  0  0  0  0
  4  5  1  0  0  0  0
  4 13  2  0  0  0  0
  5  6  2  0  0  0  0
  5 31  1  0  0  0  0
  6  7  1  0  0  0  0
  7  8  2  0  0  0  0
  7 32  1  0  0  0  0
  8  9  1  0  0  0  0
  8 13  1  0  0  0  0
  9 10  2  0  0  0  0
  9 33  1  0  0  0  0
 10 11  1  0  0  0  0
 10 34  1  0  0  0  0
 11 12  2  0  0  0  0
 11 35  1  0  0  0  0
 12 13  1  0  0  0  0
 12 36  1  0  0  0  0
 14 15  1  0  0  0  0
 14 28  1  0  0  0  0
 15 16  1  0  0  0  0
 15 37  1  0  0  0  0
 15 38  1  0  0  0  0
 16 17  1  0  0  0  0
 16 21  2  0  0  0  0
 17 18  2  0  0  0  0
 17 39  1  0  0  0  0
 18 19  1  0  0  0  0
 18 40  1  0  0  0  0
 19 20  2  0  0  0  0
 19 41  1  0  0  0  0
 20 21  1  0  0  0  0
 20 42  1  0  0  0  0
 21 22  1  0  0  0  0
 22 28  1  0  0  0  0
 22 23  1  0  0  0  0
 22 43  1  6  0  0  0
 23 24  2  0  0  0  0
 23 27  1  0  0  0  0
 24 25  1  0  0  0  0
 24 44  1  0  0  0  0
 25 26  2  0  0  0  0
 25 45  1  0  0  0  0
 26 27  1  0  0  0  0
 26 46  1  0  0  0  0
 28 47  1  0  0  0  0
 28 48  1  0  0  0  0
M  END
$$$$
