
 OpenBabel07202414183D

 37 40  0  0  0  0  0  0  0  0999 V2000
   -0.8834   -0.2372   -3.1750 Cl  0  0  0  0  0  0  0  0  0  0  0  0
    0.1598   -0.1744   -1.8060 C   0  0  0  0  0  0  0  0  0  0  0  0
    0.2317    0.9923   -1.0479 C   0  0  0  0  0  0  0  0  0  0  0  0
    1.0673    1.0358    0.0653 C   0  0  0  0  0  0  0  0  0  0  0  0
    1.8236   -0.0863    0.4172 C   0  0  0  0  0  0  0  0  0  0  0  0
    1.7582   -1.2685   -0.3398 C   0  0  0  0  0  0  0  0  0  0  0  0
    2.5329   -2.4997    0.0819 C   0  0  0  0  0  0  0  0  0  0  0  0
    3.9654   -2.2925    0.0784 N   0  0  0  0  0  0  0  0  0  0  0  0
    4.7932   -2.3897   -1.0989 C   0  0  0  0  0  0  0  0  0  0  0  0
    5.9851   -1.5144   -0.7384 C   0  0  0  0  0  0  0  0  0  0  0  0
    6.0169   -1.5956    0.7043 N   0  0  0  0  0  0  0  0  0  0  0  0
    6.9203   -0.8364    1.4560 C   0  0  0  0  0  0  0  0  0  0  0  0
    7.4208    0.3211    0.9396 N   0  0  0  0  0  0  0  0  0  0  0  0
    8.2659    1.0703    1.6865 C   0  0  0  0  0  0  0  0  0  0  0  0
    8.7627    0.7159    2.9317 C   0  0  0  0  0  0  0  0  0  0  0  0
    8.3182   -0.5177    3.3956 C   0  0  0  0  0  0  0  0  0  0  0  0
    8.6231   -1.2399    4.5185 N   0  0  0  0  0  0  0  0  0  0  0  0
    8.0018   -2.4291    4.5925 N   0  0  0  0  0  0  0  0  0  0  0  0
    7.2379   -2.4461    3.4958 C   0  0  0  0  0  0  0  0  0  0  0  0
    7.3945   -1.2906    2.6972 C   0  0  0  0  0  0  0  0  0  0  0  0
    4.7243   -1.8914    1.1824 C   0  0  0  0  0  0  0  0  0  0  0  0
    4.3068   -1.7728    2.3240 O   0  0  0  0  0  0  0  0  0  0  0  0
    0.9173   -1.2978   -1.4631 C   0  0  0  0  0  0  0  0  0  0  0  0
   -0.3669    1.8605   -1.3108 H   0  0  0  0  0  0  0  0  0  0  0  0
    1.1257    1.9394    0.6674 H   0  0  0  0  0  0  0  0  0  0  0  0
    2.4589   -0.0352    1.3011 H   0  0  0  0  0  0  0  0  0  0  0  0
    2.3180   -3.3464   -0.5783 H   0  0  0  0  0  0  0  0  0  0  0  0
    2.2127   -2.7777    1.0923 H   0  0  0  0  0  0  0  0  0  0  0  0
    4.2764   -2.0638   -2.0038 H   0  0  0  0  0  0  0  0  0  0  0  0
    5.0879   -3.4422   -1.1949 H   0  0  0  0  0  0  0  0  0  0  0  0
    5.8037   -0.4790   -1.0491 H   0  0  0  0  0  0  0  0  0  0  0  0
    6.9216   -1.8818   -1.1702 H   0  0  0  0  0  0  0  0  0  0  0  0
    8.5536    2.0164    1.2328 H   0  0  0  0  0  0  0  0  0  0  0  0
    9.4550    1.3417    3.4792 H   0  0  0  0  0  0  0  0  0  0  0  0
    9.2703   -0.9935    5.2585 H   0  0  0  0  0  0  0  0  0  0  0  0
    6.6150   -3.3092    3.2996 H   0  0  0  0  0  0  0  0  0  0  0  0
    0.8385   -2.1993   -2.0642 H   0  0  0  0  0  0  0  0  0  0  0  0
  1  2  1  0  0  0  0
  2  3  1  0  0  0  0
  2 23  2  0  0  0  0
  3  4  2  0  0  0  0
  3 24  1  0  0  0  0
  4  5  1  0  0  0  0
  4 25  1  0  0  0  0
  5  6  2  0  0  0  0
  5 26  1  0  0  0  0
  6  7  1  0  0  0  0
  6 23  1  0  0  0  0
  7  8  1  0  0  0  0
  7 27  1  0  0  0  0
  7 28  1  0  0  0  0
  8  9  1  0  0  0  0
  8 21  1  0  0  0  0
  9 10  1  0  0  0  0
  9 29  1  0  0  0  0
  9 30  1  0  0  0  0
 10 11  1  0  0  0  0
 10 31  1  0  0  0  0
 10 32  1  0  0  0  0
 11 12  1  0  0  0  0
 11 21  1  0  0  0  0
 12 13  1  0  0  0  0
 12 20  2  0  0  0  0
 13 14  2  0  0  0  0
 14 15  1  0  0  0  0
 14 33  1  0  0  0  0
 15 16  2  0  0  0  0
 15 34  1  0  0  0  0
 16 17  1  0  0  0  0
 16 20  1  0  0  0  0
 17 18  1  0  0  0  0
 17 35  1  0  0  0  0
 18 19  2  0  0  0  0
 19 20  1  0  0  0  0
 19 36  1  0  0  0  0
 21 22  2  0  0  0  0
 23 37  1  0  0  0  0
M  END
$$$$
