
 OpenBabel07202414153D

 63 65  0  0  1  0  0  0  0  0999 V2000
    3.3112   10.5143    2.8345 C   0  0  0  0  0  0  0  0  0  0  0  0
    4.5499    9.8800    2.5340 O   0  0  0  0  0  0  0  0  0  0  0  0
    4.4696    8.4654    2.7091 C   0  0  0  0  0  0  0  0  0  0  0  0
    5.8189    7.8457    2.3462 C   0  0  0  0  0  0  0  0  0  0  0  0
    5.7655    6.3347    2.4987 C   0  0  0  0  0  0  0  0  0  0  0  0
    6.9760    5.6534    2.0710 N   0  0  0  0  0  0  0  0  0  0  0  0
    7.0405    4.2817    2.2356 C   0  0  0  0  0  0  0  0  0  0  0  0
    6.0371    3.6273    2.5353 O   0  0  0  0  0  0  0  0  0  0  0  0
    8.4296    3.6006    2.1531 C   0  0  3  0  0  0  0  0  0  0  0  0
    9.0510    3.6245    0.7889 N   0  0  0  0  0  0  0  0  0  0  0  0
    9.9799    4.5481    0.2631 C   0  0  0  0  0  0  0  0  0  0  0  0
   10.4809    4.4095   -0.8567 O   0  0  0  0  0  0  0  0  0  0  0  0
   10.4263    5.6917    1.0428 C   0  0  0  0  0  0  0  0  0  0  0  0
   11.6903    6.2410    0.9271 C   0  0  0  0  0  0  0  0  0  0  0  0
   11.7937    7.2731    1.7999 O   0  0  0  0  0  0  0  0  0  0  0  0
   10.5654    7.3253    2.3837 C   0  0  0  0  0  0  0  0  0  0  0  0
    9.6913    6.4400    1.9468 N   0  0  0  0  0  0  0  0  0  0  0  0
    8.7088    2.5145   -0.0773 C   0  0  0  0  0  0  0  0  0  0  0  0
    9.7266    1.7313   -0.6315 C   0  0  0  0  0  0  0  0  0  0  0  0
    9.4577    0.7712   -1.6134 C   0  0  0  0  0  0  0  0  0  0  0  0
    8.1568    0.5558   -2.0954 C   0  0  0  0  0  0  0  0  0  0  0  0
    7.8712   -0.4183   -3.2575 C   0  0  0  0  0  0  0  0  0  0  0  0
    9.1381   -1.1488   -3.7687 C   0  0  0  0  0  0  0  0  0  0  0  0
    6.8649   -1.5015   -2.8190 C   0  0  0  0  0  0  0  0  0  0  0  0
    7.2817    0.3368   -4.4725 C   0  0  0  0  0  0  0  0  0  0  0  0
    7.1291    1.3009   -1.4806 C   0  0  0  0  0  0  0  0  0  0  0  0
    7.3953    2.2550   -0.4739 C   0  0  0  0  0  0  0  0  0  0  0  0
    9.3527    3.9133    3.3364 C   0  0  0  0  0  0  0  0  0  0  0  0
   10.6328    3.3523    3.4380 C   0  0  0  0  0  0  0  0  0  0  0  0
   11.4740    3.7137    4.4908 C   0  0  0  0  0  0  0  0  0  0  0  0
   11.0082    4.6101    5.4354 C   0  0  0  0  0  0  0  0  0  0  0  0
    9.7687    5.1308    5.4140 N   0  0  0  0  0  0  0  0  0  0  0  0
    8.9705    4.7571    4.3861 C   0  0  0  0  0  0  0  0  0  0  0  0
    3.4213   11.5874    2.6571 H   0  0  0  0  0  0  0  0  0  0  0  0
    3.0464   10.3591    3.8850 H   0  0  0  0  0  0  0  0  0  0  0  0
    2.5157   10.1341    2.1862 H   0  0  0  0  0  0  0  0  0  0  0  0
    3.6851    8.0643    2.0576 H   0  0  0  0  0  0  0  0  0  0  0  0
    4.2150    8.2422    3.7503 H   0  0  0  0  0  0  0  0  0  0  0  0
    6.6026    8.2665    2.9888 H   0  0  0  0  0  0  0  0  0  0  0  0
    6.0913    8.1224    1.3221 H   0  0  0  0  0  0  0  0  0  0  0  0
    4.9298    5.9182    1.9212 H   0  0  0  0  0  0  0  0  0  0  0  0
    5.5930    6.0759    3.5501 H   0  0  0  0  0  0  0  0  0  0  0  0
    7.8595    6.1681    2.0486 H   0  0  0  0  0  0  0  0  0  0  0  0
    8.1931    2.5378    2.3310 H   0  0  0  0  0  0  0  0  0  0  0  0
   12.5617    6.0105    0.3295 H   0  0  0  0  0  0  0  0  0  0  0  0
   10.4312    8.0820    3.1433 H   0  0  0  0  0  0  0  0  0  0  0  0
   10.7609    1.8801   -0.3317 H   0  0  0  0  0  0  0  0  0  0  0  0
   10.3083    0.2276   -2.0118 H   0  0  0  0  0  0  0  0  0  0  0  0
    9.6029   -1.7484   -2.9774 H   0  0  0  0  0  0  0  0  0  0  0  0
    9.8862   -0.4400   -4.1444 H   0  0  0  0  0  0  0  0  0  0  0  0
    8.9034   -1.8299   -4.5950 H   0  0  0  0  0  0  0  0  0  0  0  0
    7.2416   -2.0669   -1.9596 H   0  0  0  0  0  0  0  0  0  0  0  0
    6.6788   -2.2163   -3.6307 H   0  0  0  0  0  0  0  0  0  0  0  0
    5.8954   -1.0752   -2.5406 H   0  0  0  0  0  0  0  0  0  0  0  0
    7.9797    1.0968   -4.8446 H   0  0  0  0  0  0  0  0  0  0  0  0
    6.3401    0.8427   -4.2290 H   0  0  0  0  0  0  0  0  0  0  0  0
    7.0740   -0.3518   -5.2984 H   0  0  0  0  0  0  0  0  0  0  0  0
    6.0971    1.1779   -1.8053 H   0  0  0  0  0  0  0  0  0  0  0  0
    6.5635    2.8363   -0.0858 H   0  0  0  0  0  0  0  0  0  0  0  0
   10.9901    2.6458    2.6911 H   0  0  0  0  0  0  0  0  0  0  0  0
   12.4764    3.3081    4.5714 H   0  0  0  0  0  0  0  0  0  0  0  0
   11.6347    4.9407    6.2612 H   0  0  0  0  0  0  0  0  0  0  0  0
    7.9845    5.2111    4.4417 H   0  0  0  0  0  0  0  0  0  0  0  0
  1  2  1  0  0  0  0
  1 34  1  0  0  0  0
  1 35  1  0  0  0  0
  1 36  1  0  0  0  0
  2  3  1  0  0  0  0
  3  4  1  0  0  0  0
  3 37  1  0  0  0  0
  3 38  1  0  0  0  0
  4  5  1  0  0  0  0
  4 39  1  0  0  0  0
  4 40  1  0  0  0  0
  5  6  1  0  0  0  0
  5 41  1  0  0  0  0
  5 42  1  0  0  0  0
  6  7  1  0  0  0  0
  6 43  1  0  0  0  0
  7  8  2  0  0  0  0
  7  9  1  0  0  0  0
  9 10  1  0  0  0  0
  9 28  1  0  0  0  0
  9 44  1  0  0  0  0
 10 11  1  0  0  0  0
 10 18  1  0  0  0  0
 11 12  2  0  0  0  0
 11 13  1  0  0  0  0
 13 14  2  0  0  0  0
 13 17  1  0  0  0  0
 14 15  1  0  0  0  0
 14 45  1  0  0  0  0
 15 16  1  0  0  0  0
 16 17  2  0  0  0  0
 16 46  1  0  0  0  0
 18 19  1  0  0  0  0
 18 27  2  0  0  0  0
 19 20  2  0  0  0  0
 19 47  1  0  0  0  0
 20 21  1  0  0  0  0
 20 48  1  0  0  0  0
 21 22  1  0  0  0  0
 21 26  2  0  0  0  0
 22 23  1  0  0  0  0
 22 24  1  0  0  0  0
 22 25  1  0  0  0  0
 23 49  1  0  0  0  0
 23 50  1  0  0  0  0
 23 51  1  0  0  0  0
 24 52  1  0  0  0  0
 24 53  1  0  0  0  0
 24 54  1  0  0  0  0
 25 55  1  0  0  0  0
 25 56  1  0  0  0  0
 25 57  1  0  0  0  0
 26 27  1  0  0  0  0
 26 58  1  0  0  0  0
 27 59  1  0  0  0  0
 28 29  1  0  0  0  0
 28 33  2  0  0  0  0
 29 30  2  0  0  0  0
 29 60  1  0  0  0  0
 30 31  1  0  0  0  0
 30 61  1  0  0  0  0
 31 32  2  0  0  0  0
 31 62  1  0  0  0  0
 32 33  1  0  0  0  0
 33 63  1  0  0  0  0
M  END
$$$$
