
 OpenBabel07202414143D

 45 48  0  0  0  0  0  0  0  0999 V2000
    6.6763   -6.0523    2.6883 C   0  0  0  0  0  0  0  0  0  0  0  0
    6.2846   -4.7006    2.3110 N   0  0  0  0  0  0  0  0  0  0  0  0
    6.3559   -3.5760    3.1994 C   0  0  0  0  0  0  0  0  0  0  0  0
    6.1666   -3.6148    4.5743 C   0  0  0  0  0  0  0  0  0  0  0  0
    6.0335   -2.4079    5.2661 C   0  0  0  0  0  0  0  0  0  0  0  0
    6.0458   -1.1864    4.5761 C   0  0  0  0  0  0  0  0  0  0  0  0
    6.1998   -1.1503    3.1837 C   0  0  0  0  0  0  0  0  0  0  0  0
    6.3749   -2.3474    2.5048 C   0  0  0  0  0  0  0  0  0  0  0  0
    6.3895   -2.5396    1.0882 N   0  0  0  0  0  0  0  0  0  0  0  0
    6.5950   -1.5423    0.0473 C   0  0  0  0  0  0  0  0  0  0  0  0
    7.9235   -0.7895    0.0798 C   0  0  0  0  0  0  0  0  0  0  0  0
    9.1801   -1.4940   -0.1551 N   0  0  0  0  0  0  0  0  0  0  0  0
   10.2963   -0.6670   -0.3150 C   0  0  0  0  0  0  0  0  0  0  0  0
   10.1504    0.5558   -0.3605 O   0  0  0  0  0  0  0  0  0  0  0  0
   11.6847   -1.2047   -0.3575 C   0  0  0  0  0  0  0  0  0  0  0  0
   12.0274   -2.3087    0.4127 C   0  0  0  0  0  0  0  0  0  0  0  0
   13.3044   -2.6962    0.6567 N   0  0  0  0  0  0  0  0  0  0  0  0
   14.2838   -1.9593    0.0827 C   0  0  0  0  0  0  0  0  0  0  0  0
   14.0693   -0.8929   -0.7906 C   0  0  0  0  0  0  0  0  0  0  0  0
   15.1463   -0.2350   -1.4234 C   0  0  0  0  0  0  0  0  0  0  0  0
   14.9234    0.8250   -2.2994 C   0  0  0  0  0  0  0  0  0  0  0  0
   13.6268    1.2570   -2.5297 C   0  0  0  0  0  0  0  0  0  0  0  0
   12.5553    0.6130   -1.9017 C   0  0  0  0  0  0  0  0  0  0  0  0
   12.7339   -0.4874   -1.0195 C   0  0  0  0  0  0  0  0  0  0  0  0
    6.7752   -4.1459    0.7816 S   0  0  0  0  0  0  0  0  0  0  0  0
    5.9103   -4.6830   -0.2429 O   0  0  0  0  0  0  0  0  0  0  0  0
    8.2218   -4.2272    0.6822 O   0  0  0  0  0  0  0  0  0  0  0  0
    6.5261   -6.2462    3.7528 H   0  0  0  0  0  0  0  0  0  0  0  0
    7.7264   -6.2470    2.4559 H   0  0  0  0  0  0  0  0  0  0  0  0
    6.0509   -6.7662    2.1428 H   0  0  0  0  0  0  0  0  0  0  0  0
    6.0849   -4.5514    5.1141 H   0  0  0  0  0  0  0  0  0  0  0  0
    5.8804   -2.4174    6.3444 H   0  0  0  0  0  0  0  0  0  0  0  0
    5.8991   -0.2604    5.1304 H   0  0  0  0  0  0  0  0  0  0  0  0
    6.1513   -0.2000    2.6642 H   0  0  0  0  0  0  0  0  0  0  0  0
    5.7841   -0.8068    0.1319 H   0  0  0  0  0  0  0  0  0  0  0  0
    6.4613   -2.0085   -0.9356 H   0  0  0  0  0  0  0  0  0  0  0  0
    8.0356   -0.2502    1.0257 H   0  0  0  0  0  0  0  0  0  0  0  0
    7.8516   -0.0273   -0.7087 H   0  0  0  0  0  0  0  0  0  0  0  0
    9.2491   -2.4943    0.0327 H   0  0  0  0  0  0  0  0  0  0  0  0
   11.2825   -2.9170    0.9158 H   0  0  0  0  0  0  0  0  0  0  0  0
   15.2932   -2.2591    0.3582 H   0  0  0  0  0  0  0  0  0  0  0  0
   16.1710   -0.5577   -1.2491 H   0  0  0  0  0  0  0  0  0  0  0  0
   15.7573    1.3098   -2.8015 H   0  0  0  0  0  0  0  0  0  0  0  0
   13.4372    2.0931   -3.1986 H   0  0  0  0  0  0  0  0  0  0  0  0
   11.5578    0.9877   -2.1238 H   0  0  0  0  0  0  0  0  0  0  0  0
  1  2  1  0  0  0  0
  1 28  1  0  0  0  0
  1 29  1  0  0  0  0
  1 30  1  0  0  0  0
  2  3  1  0  0  0  0
  2 25  1  0  0  0  0
  3  4  1  0  0  0  0
  3  8  2  0  0  0  0
  4  5  2  0  0  0  0
  4 31  1  0  0  0  0
  5  6  1  0  0  0  0
  5 32  1  0  0  0  0
  6  7  2  0  0  0  0
  6 33  1  0  0  0  0
  7  8  1  0  0  0  0
  7 34  1  0  0  0  0
  8  9  1  0  0  0  0
  9 10  1  0  0  0  0
  9 25  1  0  0  0  0
 10 11  1  0  0  0  0
 10 35  1  0  0  0  0
 10 36  1  0  0  0  0
 11 12  1  0  0  0  0
 11 37  1  0  0  0  0
 11 38  1  0  0  0  0
 12 13  1  0  0  0  0
 12 39  1  0  0  0  0
 13 14  2  0  0  0  0
 13 15  1  0  0  0  0
 15 16  1  0  0  0  0
 15 24  2  0  0  0  0
 16 17  2  0  0  0  0
 16 40  1  0  0  0  0
 17 18  1  0  0  0  0
 18 19  2  0  0  0  0
 18 41  1  0  0  0  0
 19 20  1  0  0  0  0
 19 24  1  0  0  0  0
 20 21  2  0  0  0  0
 20 42  1  0  0  0  0
 21 22  1  0  0  0  0
 21 43  1  0  0  0  0
 22 23  2  0  0  0  0
 22 44  1  0  0  0  0
 23 24  1  0  0  0  0
 23 45  1  0  0  0  0
 25 26  2  0  0  0  0
 25 27  2  0  0  0  0
M  END
$$$$
