
 OpenBabel07202414133D

 41 43  0  0  0  0  0  0  0  0999 V2000
    3.8059    0.8814   -5.9915 C   0  0  0  0  0  0  0  0  0  0  0  0
    4.5574    0.4369   -4.7439 C   0  0  0  0  0  0  0  0  0  0  0  0
    4.2730    1.2756   -3.6225 O   0  0  0  0  0  0  0  0  0  0  0  0
    4.9902    1.0771   -2.4557 C   0  0  0  0  0  0  0  0  0  0  0  0
    5.9196    0.0449   -2.1633 C   0  0  0  0  0  0  0  0  0  0  0  0
    6.3499   -1.2937   -3.1815 Cl  0  0  0  0  0  0  0  0  0  0  0  0
    6.6123    0.0272   -0.9424 C   0  0  0  0  0  0  0  0  0  0  0  0
    6.3742    0.9894    0.0239 C   0  0  0  0  0  0  0  0  0  0  0  0
    5.4402    1.9879   -0.2206 C   0  0  0  0  0  0  0  0  0  0  0  0
    4.7537    2.0626   -1.4524 C   0  0  0  0  0  0  0  0  0  0  0  0
    3.8682    3.2840   -1.6556 C   0  0  0  0  0  0  0  0  0  0  0  0
    2.3713    3.0717   -1.5620 C   0  0  0  0  0  0  0  0  0  0  0  0
    1.7396    3.2943   -0.5306 O   0  0  0  0  0  0  0  0  0  0  0  0
    1.8160    2.6305   -2.7451 N   0  0  0  0  0  0  0  0  0  0  0  0
    0.4334    2.4353   -2.9678 C   0  0  0  0  0  0  0  0  0  0  0  0
   -0.5236    3.3478   -2.5354 C   0  0  0  0  0  0  0  0  0  0  0  0
   -1.8422    3.2777   -2.8548 N   0  0  0  0  0  0  0  0  0  0  0  0
   -2.2159    2.2324   -3.6283 C   0  0  0  0  0  0  0  0  0  0  0  0
   -1.3561    1.2372   -4.0979 C   0  0  0  0  0  0  0  0  0  0  0  0
   -1.7977    0.1617   -4.8899 C   0  0  0  0  0  0  0  0  0  0  0  0
   -0.9122   -0.8312   -5.3063 C   0  0  0  0  0  0  0  0  0  0  0  0
    0.4134   -0.7827   -4.9049 C   0  0  0  0  0  0  0  0  0  0  0  0
    0.8524    0.2749   -4.1098 C   0  0  0  0  0  0  0  0  0  0  0  0
    0.0026    1.3307   -3.7342 C   0  0  0  0  0  0  0  0  0  0  0  0
    4.0513    0.2197   -6.8287 H   0  0  0  0  0  0  0  0  0  0  0  0
    4.0633    1.9097   -6.2598 H   0  0  0  0  0  0  0  0  0  0  0  0
    2.7265    0.8518   -5.8516 H   0  0  0  0  0  0  0  0  0  0  0  0
    5.6207    0.4836   -4.9892 H   0  0  0  0  0  0  0  0  0  0  0  0
    4.2259   -0.5851   -4.5251 H   0  0  0  0  0  0  0  0  0  0  0  0
    7.3485   -0.7471   -0.7396 H   0  0  0  0  0  0  0  0  0  0  0  0
    6.9263    0.9711    0.9617 H   0  0  0  0  0  0  0  0  0  0  0  0
    5.2695    2.7380    0.5542 H   0  0  0  0  0  0  0  0  0  0  0  0
    4.1150    3.7684   -2.6066 H   0  0  0  0  0  0  0  0  0  0  0  0
    4.1064    4.0377   -0.8904 H   0  0  0  0  0  0  0  0  0  0  0  0
    2.4655    2.1739   -3.3778 H   0  0  0  0  0  0  0  0  0  0  0  0
   -0.2557    4.2275   -1.9554 H   0  0  0  0  0  0  0  0  0  0  0  0
   -3.2805    2.2078   -3.8617 H   0  0  0  0  0  0  0  0  0  0  0  0
   -2.8438    0.0882   -5.1791 H   0  0  0  0  0  0  0  0  0  0  0  0
   -1.2613   -1.6549   -5.9243 H   0  0  0  0  0  0  0  0  0  0  0  0
    1.1111   -1.5628   -5.1992 H   0  0  0  0  0  0  0  0  0  0  0  0
    1.8795    0.2415   -3.7616 H   0  0  0  0  0  0  0  0  0  0  0  0
  1  2  1  0  0  0  0
  1 25  1  0  0  0  0
  1 26  1  0  0  0  0
  1 27  1  0  0  0  0
  2  3  1  0  0  0  0
  2 28  1  0  0  0  0
  2 29  1  0  0  0  0
  3  4  1  0  0  0  0
  4  5  1  0  0  0  0
  4 10  2  0  0  0  0
  5  6  1  0  0  0  0
  5  7  2  0  0  0  0
  7  8  1  0  0  0  0
  7 30  1  0  0  0  0
  8  9  2  0  0  0  0
  8 31  1  0  0  0  0
  9 10  1  0  0  0  0
  9 32  1  0  0  0  0
 10 11  1  0  0  0  0
 11 12  1  0  0  0  0
 11 33  1  0  0  0  0
 11 34  1  0  0  0  0
 12 13  2  0  0  0  0
 12 14  1  0  0  0  0
 14 15  1  0  0  0  0
 14 35  1  0  0  0  0
 15 16  1  0  0  0  0
 15 24  2  0  0  0  0
 16 17  2  0  0  0  0
 16 36  1  0  0  0  0
 17 18  1  0  0  0  0
 18 19  2  0  0  0  0
 18 37  1  0  0  0  0
 19 20  1  0  0  0  0
 19 24  1  0  0  0  0
 20 21  2  0  0  0  0
 20 38  1  0  0  0  0
 21 22  1  0  0  0  0
 21 39  1  0  0  0  0
 22 23  2  0  0  0  0
 22 40  1  0  0  0  0
 23 24  1  0  0  0  0
 23 41  1  0  0  0  0
M  END
$$$$
