
 OpenBabel07202414203D

 31 33  0  0  0  0  0  0  0  0999 V2000
    3.0260    1.4600   -3.5794 C   0  0  0  0  0  0  0  0  0  0  0  0
    2.3533    1.9040   -2.4375 C   0  0  0  0  0  0  0  0  0  0  0  0
    3.0642    2.2720   -1.2854 C   0  0  0  0  0  0  0  0  0  0  0  0
    4.4674    2.1846   -1.3006 C   0  0  0  0  0  0  0  0  0  0  0  0
    5.1310    1.7388   -2.4448 C   0  0  0  0  0  0  0  0  0  0  0  0
    4.4181    1.3737   -3.5838 C   0  0  0  0  0  0  0  0  0  0  0  0
    6.8487    1.6154   -2.4365 Cl  0  0  0  0  0  0  0  0  0  0  0  0
    2.3575    2.6474   -0.0081 C   0  0  0  0  0  0  0  0  0  0  0  0
    1.3424    3.7660   -0.1299 C   0  0  0  0  0  0  0  0  0  0  0  0
    0.1389    3.5217   -0.2115 O   0  0  0  0  0  0  0  0  0  0  0  0
    1.8950    5.0307   -0.1345 N   0  0  0  0  0  0  0  0  0  0  0  0
    1.0961    6.1542   -0.2021 C   0  0  0  0  0  0  0  0  0  0  0  0
   -0.1046    6.4538    0.5014 C   0  0  0  0  0  0  0  0  0  0  0  0
   -0.8576    5.8766    1.5291 C   0  0  0  0  0  0  0  0  0  0  0  0
   -1.9945    6.4806    1.9681 N   0  0  0  0  0  0  0  0  0  0  0  0
   -2.4015    7.6240    1.3730 C   0  0  0  0  0  0  0  0  0  0  0  0
   -1.7264    8.2779    0.3517 C   0  0  0  0  0  0  0  0  0  0  0  0
   -0.5428    7.6570   -0.0411 C   0  0  0  0  0  0  0  0  0  0  0  0
    0.4124    7.9981   -0.9601 N   0  0  0  0  0  0  0  0  0  0  0  0
    1.4643    7.1588   -1.0023 N   0  0  0  0  0  0  0  0  0  0  0  0
    2.4633    1.1646   -4.4619 H   0  0  0  0  0  0  0  0  0  0  0  0
    1.2635    1.9366   -2.4469 H   0  0  0  0  0  0  0  0  0  0  0  0
    5.0444    2.4374   -0.4153 H   0  0  0  0  0  0  0  0  0  0  0  0
    4.9366    1.0138   -4.4693 H   0  0  0  0  0  0  0  0  0  0  0  0
    3.0742    2.9313    0.7683 H   0  0  0  0  0  0  0  0  0  0  0  0
    1.8322    1.7629    0.3731 H   0  0  0  0  0  0  0  0  0  0  0  0
    2.7958    5.1484   -0.5788 H   0  0  0  0  0  0  0  0  0  0  0  0
   -0.5748    4.9590    2.0324 H   0  0  0  0  0  0  0  0  0  0  0  0
   -3.3349    8.0276    1.7606 H   0  0  0  0  0  0  0  0  0  0  0  0
   -2.0953    9.1879   -0.0930 H   0  0  0  0  0  0  0  0  0  0  0  0
    0.4169    8.8035   -1.5754 H   0  0  0  0  0  0  0  0  0  0  0  0
  1  2  1  0  0  0  0
  1  6  2  0  0  0  0
  1 21  1  0  0  0  0
  2  3  2  0  0  0  0
  2 22  1  0  0  0  0
  3  4  1  0  0  0  0
  3  8  1  0  0  0  0
  4  5  2  0  0  0  0
  4 23  1  0  0  0  0
  5  6  1  0  0  0  0
  5  7  1  0  0  0  0
  6 24  1  0  0  0  0
  8  9  1  0  0  0  0
  8 25  1  0  0  0  0
  8 26  1  0  0  0  0
  9 10  2  0  0  0  0
  9 11  1  0  0  0  0
 11 12  1  0  0  0  0
 11 27  1  0  0  0  0
 12 13  1  0  0  0  0
 12 20  2  0  0  0  0
 13 14  1  0  0  0  0
 13 18  2  0  0  0  0
 14 15  2  0  0  0  0
 14 28  1  0  0  0  0
 15 16  1  0  0  0  0
 16 17  2  0  0  0  0
 16 29  1  0  0  0  0
 17 18  1  0  0  0  0
 17 30  1  0  0  0  0
 18 19  1  0  0  0  0
 19 20  1  0  0  0  0
 19 31  1  0  0  0  0
M  END
$$$$
