
 OpenBabel07202414123D

 67 70  0  0  1  0  0  0  0  0999 V2000
    3.3277    1.1590   -0.4932 C   0  0  0  0  0  0  0  0  0  0  0  0
    2.5011   -0.0089    0.0925 C   0  0  0  0  0  0  0  0  0  0  0  0
    2.3618    0.2486    1.6075 C   0  0  0  0  0  0  0  0  0  0  0  0
    1.1016    0.0463   -0.5599 C   0  0  0  0  0  0  0  0  0  0  0  0
    3.1177   -1.3941   -0.1652 C   0  0  0  0  0  0  0  0  0  0  0  0
    4.1965   -1.5920   -1.0304 C   0  0  0  0  0  0  0  0  0  0  0  0
    4.6582   -2.8815   -1.3514 C   0  0  0  0  0  0  0  0  0  0  0  0
    4.0780   -4.0379   -0.8145 C   0  0  0  0  0  0  0  0  0  0  0  0
    3.0901   -3.8239    0.1593 C   0  0  0  0  0  0  0  0  0  0  0  0
    2.5910   -2.5413    0.4427 C   0  0  0  0  0  0  0  0  0  0  0  0
    4.4048   -5.3806   -1.2844 N   0  0  0  0  0  0  0  0  0  0  0  0
    3.4265   -6.4986   -1.0329 C   0  0  3  0  0  0  0  0  0  0  0  0
    3.6343   -7.1836    0.3320 C   0  0  0  0  0  0  0  0  0  0  0  0
    4.6402   -6.7942    1.2339 C   0  0  0  0  0  0  0  0  0  0  0  0
    4.8776   -7.5280    2.3937 C   0  0  0  0  0  0  0  0  0  0  0  0
    4.0931   -8.6338    2.6411 C   0  0  0  0  0  0  0  0  0  0  0  0
    3.1154   -9.0476    1.8124 N   0  0  0  0  0  0  0  0  0  0  0  0
    2.9225   -8.3313    0.6773 C   0  0  0  0  0  0  0  0  0  0  0  0
    1.9101   -6.4140   -1.4730 C   0  0  0  0  0  0  0  0  0  0  0  0
    1.2270   -7.4402   -1.5666 O   0  0  0  0  0  0  0  0  0  0  0  0
    1.3174   -5.2003   -1.7055 N   0  0  0  0  0  0  0  0  0  0  0  0
   -0.1251   -5.0899   -1.8533 C   0  0  0  0  0  0  0  0  0  0  0  0
   -0.5425   -3.6973   -2.3152 C   0  0  0  0  0  0  0  0  0  0  0  0
   -2.0102   -3.6271   -2.6479 C   0  0  0  0  0  0  0  0  0  0  0  0
   -2.4629   -4.0173   -3.9159 C   0  0  0  0  0  0  0  0  0  0  0  0
   -3.8231   -3.9580   -4.2378 C   0  0  0  0  0  0  0  0  0  0  0  0
   -4.7429   -3.5187   -3.2896 C   0  0  0  0  0  0  0  0  0  0  0  0
   -4.2950   -3.1447   -2.0284 C   0  0  0  0  0  0  0  0  0  0  0  0
   -2.9437   -3.1930   -1.6982 C   0  0  0  0  0  0  0  0  0  0  0  0
   -5.1804   -2.7282   -1.1136 F   0  0  0  0  0  0  0  0  0  0  0  0
    5.6549   -5.6565   -1.9482 C   0  0  0  0  0  0  0  0  0  0  0  0
    6.4440   -4.7730   -2.2812 O   0  0  0  0  0  0  0  0  0  0  0  0
    6.0407   -7.0399   -2.2548 C   0  0  0  0  0  0  0  0  0  0  0  0
    6.8325   -7.5477   -3.2718 C   0  0  0  0  0  0  0  0  0  0  0  0
    6.8480   -8.9581   -3.1193 C   0  0  0  0  0  0  0  0  0  0  0  0
    6.1233   -9.2336   -1.9822 C   0  0  0  0  0  0  0  0  0  0  0  0
    5.6850   -8.0725   -1.4328 O   0  0  0  0  0  0  0  0  0  0  0  0
    5.7628  -10.7745   -1.3228 Cl  0  0  0  0  0  0  0  0  0  0  0  0
    2.8760    2.1271   -0.2452 H   0  0  0  0  0  0  0  0  0  0  0  0
    3.3850    1.1078   -1.5870 H   0  0  0  0  0  0  0  0  0  0  0  0
    4.3501    1.1649   -0.0980 H   0  0  0  0  0  0  0  0  0  0  0  0
    1.9751    1.2555    1.8034 H   0  0  0  0  0  0  0  0  0  0  0  0
    3.3303    0.1570    2.1124 H   0  0  0  0  0  0  0  0  0  0  0  0
    1.6695   -0.4520    2.0863 H   0  0  0  0  0  0  0  0  0  0  0  0
    0.6292    1.0227   -0.3991 H   0  0  0  0  0  0  0  0  0  0  0  0
    0.4263   -0.7133   -0.1503 H   0  0  0  0  0  0  0  0  0  0  0  0
    1.1611   -0.1184   -1.6427 H   0  0  0  0  0  0  0  0  0  0  0  0
    4.6964   -0.7563   -1.5148 H   0  0  0  0  0  0  0  0  0  0  0  0
    5.4549   -2.9116   -2.0875 H   0  0  0  0  0  0  0  0  0  0  0  0
    2.6219   -4.6484    0.6906 H   0  0  0  0  0  0  0  0  0  0  0  0
    1.7542   -2.4661    1.1346 H   0  0  0  0  0  0  0  0  0  0  0  0
    3.7045   -7.2567   -1.7717 H   0  0  0  0  0  0  0  0  0  0  0  0
    5.2869   -5.9433    1.0343 H   0  0  0  0  0  0  0  0  0  0  0  0
    5.6719   -7.2498    3.0771 H   0  0  0  0  0  0  0  0  0  0  0  0
    4.2433   -9.2488    3.5226 H   0  0  0  0  0  0  0  0  0  0  0  0
    2.1647   -8.7673    0.0325 H   0  0  0  0  0  0  0  0  0  0  0  0
    1.8687   -4.3553   -1.7485 H   0  0  0  0  0  0  0  0  0  0  0  0
   -0.5771   -5.3253   -0.8798 H   0  0  0  0  0  0  0  0  0  0  0  0
   -0.4616   -5.8605   -2.5566 H   0  0  0  0  0  0  0  0  0  0  0  0
    0.0411   -3.4093   -3.1994 H   0  0  0  0  0  0  0  0  0  0  0  0
   -0.2937   -2.9563   -1.5448 H   0  0  0  0  0  0  0  0  0  0  0  0
   -1.7567   -4.3587   -4.6712 H   0  0  0  0  0  0  0  0  0  0  0  0
   -4.1600   -4.2585   -5.2263 H   0  0  0  0  0  0  0  0  0  0  0  0
   -5.8014   -3.4713   -3.5226 H   0  0  0  0  0  0  0  0  0  0  0  0
   -2.6373   -2.8981   -0.7005 H   0  0  0  0  0  0  0  0  0  0  0  0
    7.3100   -6.9639   -4.0477 H   0  0  0  0  0  0  0  0  0  0  0  0
    7.3232   -9.6900   -3.7571 H   0  0  0  0  0  0  0  0  0  0  0  0
  1  2  1  0  0  0  0
  1 39  1  0  0  0  0
  1 40  1  0  0  0  0
  1 41  1  0  0  0  0
  2  3  1  0  0  0  0
  2  4  1  0  0  0  0
  2  5  1  0  0  0  0
  3 42  1  0  0  0  0
  3 43  1  0  0  0  0
  3 44  1  0  0  0  0
  4 45  1  0  0  0  0
  4 46  1  0  0  0  0
  4 47  1  0  0  0  0
  5  6  1  0  0  0  0
  5 10  2  0  0  0  0
  6  7  2  0  0  0  0
  6 48  1  0  0  0  0
  7  8  1  0  0  0  0
  7 49  1  0  0  0  0
  8  9  2  0  0  0  0
  8 11  1  0  0  0  0
  9 10  1  0  0  0  0
  9 50  1  0  0  0  0
 10 51  1  0  0  0  0
 11 12  1  0  0  0  0
 11 31  1  0  0  0  0
 12 13  1  0  0  0  0
 12 19  1  0  0  0  0
 12 52  1  0  0  0  0
 13 14  1  0  0  0  0
 13 18  2  0  0  0  0
 14 15  2  0  0  0  0
 14 53  1  0  0  0  0
 15 16  1  0  0  0  0
 15 54  1  0  0  0  0
 16 17  2  0  0  0  0
 16 55  1  0  0  0  0
 17 18  1  0  0  0  0
 18 56  1  0  0  0  0
 19 20  2  0  0  0  0
 19 21  1  0  0  0  0
 21 22  1  0  0  0  0
 21 57  1  0  0  0  0
 22 23  1  0  0  0  0
 22 58  1  0  0  0  0
 22 59  1  0  0  0  0
 23 24  1  0  0  0  0
 23 60  1  0  0  0  0
 23 61  1  0  0  0  0
 24 25  1  0  0  0  0
 24 29  2  0  0  0  0
 25 26  2  0  0  0  0
 25 62  1  0  0  0  0
 26 27  1  0  0  0  0
 26 63  1  0  0  0  0
 27 28  2  0  0  0  0
 27 64  1  0  0  0  0
 28 29  1  0  0  0  0
 28 30  1  0  0  0  0
 29 65  1  0  0  0  0
 31 32  2  0  0  0  0
 31 33  1  0  0  0  0
 33 34  2  0  0  0  0
 33 37  1  0  0  0  0
 34 35  1  0  0  0  0
 34 66  1  0  0  0  0
 35 36  2  0  0  0  0
 35 67  1  0  0  0  0
 36 37  1  0  0  0  0
 36 38  1  0  0  0  0
M  END
$$$$
