
 OpenBabel07202414193D

 47 50  0  0  1  0  0  0  0  0999 V2000
    1.3541    1.0093   -0.5062 O   0  0  0  0  0  0  0  0  0  0  0  0
    2.2662    0.2203   -0.2524 C   0  0  0  0  0  0  0  0  0  0  0  0
    2.7173    0.0007    1.1860 C   0  0  0  0  0  0  0  0  0  0  0  0
    2.0774   -1.1815    1.8812 C   0  0  0  0  0  0  0  0  0  0  0  0
    0.7636   -1.5433    1.5657 C   0  0  0  0  0  0  0  0  0  0  0  0
    0.0938   -2.5708    2.1260 N   0  0  0  0  0  0  0  0  0  0  0  0
    0.7450   -3.2633    3.0809 C   0  0  0  0  0  0  0  0  0  0  0  0
    2.0411   -2.9891    3.5153 C   0  0  0  0  0  0  0  0  0  0  0  0
    2.6442   -3.7538    4.5307 C   0  0  0  0  0  0  0  0  0  0  0  0
    3.9346   -3.4661    4.9659 C   0  0  0  0  0  0  0  0  0  0  0  0
    4.6308   -2.4092    4.3949 C   0  0  0  0  0  0  0  0  0  0  0  0
    4.0393   -1.6426    3.3845 C   0  0  0  0  0  0  0  0  0  0  0  0
    2.7329   -1.9143    2.9097 C   0  0  0  0  0  0  0  0  0  0  0  0
    2.8918   -0.5130   -1.2385 N   0  0  0  0  0  0  0  0  0  0  0  0
    2.6305   -0.2623   -2.6346 C   0  0  0  0  0  0  0  0  0  0  0  0
    3.0296   -1.5577   -3.3302 C   0  0  1  0  0  0  0  0  0  0  0  0
    3.3768   -1.3024   -4.7883 C   0  0  0  0  0  0  0  0  0  0  0  0
    4.3804   -0.3897   -4.8741 F   0  0  0  0  0  0  0  0  0  0  0  0
    4.1242   -2.2054   -2.4144 C   0  0  0  0  0  0  0  0  0  0  0  0
    5.5756   -2.1913   -2.9527 C   0  0  0  0  0  0  0  0  0  0  0  0
    6.1741   -3.5315   -2.5486 C   0  0  0  0  0  0  0  0  0  0  0  0
    5.0110   -4.4873   -2.7163 C   0  0  0  0  0  0  0  0  0  0  0  0
    3.8213   -3.7136   -2.1673 C   0  0  0  0  0  0  0  0  0  0  0  0
    4.0131   -1.4182   -1.0808 C   0  0  0  0  0  0  0  0  0  0  0  0
    2.4787    0.9093    1.7533 H   0  0  0  0  0  0  0  0  0  0  0  0
    3.8078   -0.0730    1.1750 H   0  0  0  0  0  0  0  0  0  0  0  0
    0.1828   -0.9979    0.8243 H   0  0  0  0  0  0  0  0  0  0  0  0
    0.1686   -4.0778    3.5124 H   0  0  0  0  0  0  0  0  0  0  0  0
    2.1057   -4.5785    4.9927 H   0  0  0  0  0  0  0  0  0  0  0  0
    4.3904   -4.0622    5.7525 H   0  0  0  0  0  0  0  0  0  0  0  0
    5.6368   -2.1737    4.7356 H   0  0  0  0  0  0  0  0  0  0  0  0
    4.6235   -0.8198    2.9820 H   0  0  0  0  0  0  0  0  0  0  0  0
    3.2474    0.5900   -2.9411 H   0  0  0  0  0  0  0  0  0  0  0  0
    1.5788   -0.0082   -2.8039 H   0  0  0  0  0  0  0  0  0  0  0  0
    2.1421   -2.2046   -3.3212 H   0  0  0  0  0  0  0  0  0  0  0  0
    2.5188   -0.8951   -5.3317 H   0  0  0  0  0  0  0  0  0  0  0  0
    3.6981   -2.2181   -5.2936 H   0  0  0  0  0  0  0  0  0  0  0  0
    6.1753   -1.3573   -2.5747 H   0  0  0  0  0  0  0  0  0  0  0  0
    5.6152   -2.1400   -4.0435 H   0  0  0  0  0  0  0  0  0  0  0  0
    6.5118   -3.5072   -1.5069 H   0  0  0  0  0  0  0  0  0  0  0  0
    7.0231   -3.8086   -3.1811 H   0  0  0  0  0  0  0  0  0  0  0  0
    5.1683   -5.4312   -2.1860 H   0  0  0  0  0  0  0  0  0  0  0  0
    4.8503   -4.7153   -3.7766 H   0  0  0  0  0  0  0  0  0  0  0  0
    3.7260   -3.9349   -1.0976 H   0  0  0  0  0  0  0  0  0  0  0  0
    2.8959   -4.0600   -2.6379 H   0  0  0  0  0  0  0  0  0  0  0  0
    4.8963   -0.7971   -0.8928 H   0  0  0  0  0  0  0  0  0  0  0  0
    3.8614   -2.0488   -0.2020 H   0  0  0  0  0  0  0  0  0  0  0  0
  1  2  2  0  0  0  0
  2  3  1  0  0  0  0
  2 14  1  0  0  0  0
  3  4  1  0  0  0  0
  3 25  1  0  0  0  0
  3 26  1  0  0  0  0
  4  5  1  0  0  0  0
  4 13  2  0  0  0  0
  5  6  2  0  0  0  0
  5 27  1  0  0  0  0
  6  7  1  0  0  0  0
  7  8  2  0  0  0  0
  7 28  1  0  0  0  0
  8  9  1  0  0  0  0
  8 13  1  0  0  0  0
  9 10  2  0  0  0  0
  9 29  1  0  0  0  0
 10 11  1  0  0  0  0
 10 30  1  0  0  0  0
 11 12  2  0  0  0  0
 11 31  1  0  0  0  0
 12 13  1  0  0  0  0
 12 32  1  0  0  0  0
 14 15  1  0  0  0  0
 14 24  1  0  0  0  0
 15 16  1  0  0  0  0
 15 33  1  0  0  0  0
 15 34  1  0  0  0  0
 16 17  1  0  0  0  0
 16 19  1  0  0  0  0
 16 35  1  1  0  0  0
 17 18  1  0  0  0  0
 17 36  1  0  0  0  0
 17 37  1  0  0  0  0
 19 20  1  0  0  0  0
 19 23  1  0  0  0  0
 19 24  1  0  0  0  0
 20 21  1  0  0  0  0
 20 38  1  0  0  0  0
 20 39  1  0  0  0  0
 21 22  1  0  0  0  0
 21 40  1  0  0  0  0
 21 41  1  0  0  0  0
 22 23  1  0  0  0  0
 22 42  1  0  0  0  0
 22 43  1  0  0  0  0
 23 44  1  0  0  0  0
 23 45  1  0  0  0  0
 24 46  1  0  0  0  0
 24 47  1  0  0  0  0
M  END
$$$$
