
 OpenBabel07202414203D

 29 31  0  0  0  0  0  0  0  0999 V2000
    1.8812    1.4610    0.2083 C   0  0  0  0  0  0  0  0  0  0  0  0
    0.5290    1.8027    0.2613 C   0  0  0  0  0  0  0  0  0  0  0  0
   -0.3839    0.7750    0.0919 C   0  0  0  0  0  0  0  0  0  0  0  0
   -0.0329   -0.5299   -0.2441 C   0  0  0  0  0  0  0  0  0  0  0  0
    1.2890   -0.7730   -0.5518 C   0  0  0  0  0  0  0  0  0  0  0  0
    2.2656    0.1736   -0.1948 C   0  0  0  0  0  0  0  0  0  0  0  0
    1.7525   -1.9508   -1.9773 Br  0  0  0  0  0  0  0  0  0  0  0  0
   -1.1730   -1.3813   -0.2203 N   0  0  0  0  0  0  0  0  0  0  0  0
   -2.3086   -0.6379    0.0580 C   0  0  0  0  0  0  0  0  0  0  0  0
   -3.4511   -1.0135    0.2324 O   0  0  0  0  0  0  0  0  0  0  0  0
   -1.8515    0.8268    0.1885 C   0  0  0  0  0  0  0  0  0  0  0  0
   -2.5266    1.8115    0.3062 O   0  0  0  0  0  0  0  0  0  0  0  0
   -1.1618   -2.8319   -0.0917 C   0  0  0  0  0  0  0  0  0  0  0  0
   -0.4977   -3.3295    1.1812 C   0  0  0  0  0  0  0  0  0  0  0  0
   -0.9967   -2.9929    2.4514 C   0  0  0  0  0  0  0  0  0  0  0  0
   -0.2565   -3.2835    3.6043 C   0  0  0  0  0  0  0  0  0  0  0  0
    0.9715   -3.9324    3.4923 C   0  0  0  0  0  0  0  0  0  0  0  0
    1.4160   -4.3856    2.2540 C   0  0  0  0  0  0  0  0  0  0  0  0
    0.6747   -4.0975    1.1048 C   0  0  0  0  0  0  0  0  0  0  0  0
    2.0795   -4.1262    5.0120 Br  0  0  0  0  0  0  0  0  0  0  0  0
    2.6460    2.2138    0.4094 H   0  0  0  0  0  0  0  0  0  0  0  0
    0.2117    2.8197    0.4525 H   0  0  0  0  0  0  0  0  0  0  0  0
    3.3250   -0.0505   -0.3167 H   0  0  0  0  0  0  0  0  0  0  0  0
   -0.6814   -3.2559   -0.9812 H   0  0  0  0  0  0  0  0  0  0  0  0
   -2.1959   -3.1997   -0.0979 H   0  0  0  0  0  0  0  0  0  0  0  0
   -1.9464   -2.4721    2.5554 H   0  0  0  0  0  0  0  0  0  0  0  0
   -0.6242   -2.9646    4.5767 H   0  0  0  0  0  0  0  0  0  0  0  0
    2.3552   -4.9253    2.1651 H   0  0  0  0  0  0  0  0  0  0  0  0
    1.0453   -4.4452    0.1431 H   0  0  0  0  0  0  0  0  0  0  0  0
  1  2  1  0  0  0  0
  1  6  2  0  0  0  0
  1 21  1  0  0  0  0
  2  3  2  0  0  0  0
  2 22  1  0  0  0  0
  3  4  1  0  0  0  0
  3 11  1  0  0  0  0
  4  5  2  0  0  0  0
  4  8  1  0  0  0  0
  5  6  1  0  0  0  0
  5  7  1  0  0  0  0
  6 23  1  0  0  0  0
  8  9  1  0  0  0  0
  8 13  1  0  0  0  0
  9 10  2  0  0  0  0
  9 11  1  0  0  0  0
 11 12  2  0  0  0  0
 13 14  1  0  0  0  0
 13 24  1  0  0  0  0
 13 25  1  0  0  0  0
 14 15  1  0  0  0  0
 14 19  2  0  0  0  0
 15 16  2  0  0  0  0
 15 26  1  0  0  0  0
 16 17  1  0  0  0  0
 16 27  1  0  0  0  0
 17 18  2  0  0  0  0
 17 20  1  0  0  0  0
 18 19  1  0  0  0  0
 18 28  1  0  0  0  0
 19 29  1  0  0  0  0
M  END
$$$$
