
 OpenBabel07202414133D

 46 48  0  0  1  0  0  0  0  0999 V2000
    3.3365    0.7898   -1.7541 C   0  0  0  0  0  0  0  0  0  0  0  0
    4.8290    1.0667   -1.7105 C   0  0  0  0  0  0  0  0  0  0  0  0
    5.5013   -0.1650   -1.9941 O   0  0  0  0  0  0  0  0  0  0  0  0
    5.7893   -0.9449   -0.9241 C   0  0  0  0  0  0  0  0  0  0  0  0
    5.8425   -0.6005    0.2438 O   0  0  0  0  0  0  0  0  0  0  0  0
    5.9478   -2.3450   -1.3807 C   0  0  0  0  0  0  0  0  0  0  0  0
    5.3257   -2.7833   -2.5519 C   0  0  0  0  0  0  0  0  0  0  0  0
    5.4275   -4.1167   -2.9418 C   0  0  0  0  0  0  0  0  0  0  0  0
    6.1566   -5.0325   -2.1798 C   0  0  0  0  0  0  0  0  0  0  0  0
    6.3242   -6.3837   -2.5560 N   0  0  0  0  0  0  0  0  0  0  0  0
    5.9911   -6.9197   -3.7876 C   0  0  0  0  0  0  0  0  0  0  0  0
    5.5110   -6.3044   -4.7318 O   0  0  0  0  0  0  0  0  0  0  0  0
    6.2860   -8.4026   -3.8995 C   0  0  0  0  0  0  0  0  0  0  0  0
    5.9671   -8.9730   -5.2840 C   0  0  3  0  0  0  0  0  0  0  0  0
    7.0217   -8.3696   -6.6100 S   0  0  0  0  0  0  0  0  0  0  0  0
    5.6603   -7.7238   -7.5187 C   0  0  0  0  0  0  0  0  0  0  0  0
    5.8815   -7.0626   -8.5220 O   0  0  0  0  0  0  0  0  0  0  0  0
    4.4508   -8.0621   -6.9385 N   0  0  0  0  0  0  0  0  0  0  0  0
    3.1885   -7.7359   -7.5573 C   0  0  0  0  0  0  0  0  0  0  0  0
    3.0895   -7.4906   -8.9394 C   0  0  0  0  0  0  0  0  0  0  0  0
    1.8614   -7.2100   -9.5540 C   0  0  0  0  0  0  0  0  0  0  0  0
    0.6959   -7.1660   -8.8007 C   0  0  0  0  0  0  0  0  0  0  0  0
    0.7623   -7.3932   -7.4326 C   0  0  0  0  0  0  0  0  0  0  0  0
    1.9926   -7.6712   -6.8209 C   0  0  0  0  0  0  0  0  0  0  0  0
    4.5376   -8.7044   -5.7090 C   0  0  0  0  0  0  0  0  0  0  0  0
    3.6189   -9.1051   -4.9946 O   0  0  0  0  0  0  0  0  0  0  0  0
    6.7512   -4.5977   -0.9879 C   0  0  0  0  0  0  0  0  0  0  0  0
    6.6485   -3.2581   -0.5882 C   0  0  0  0  0  0  0  0  0  0  0  0
    2.7570    1.6993   -1.5831 H   0  0  0  0  0  0  0  0  0  0  0  0
    3.0595    0.0444   -1.0005 H   0  0  0  0  0  0  0  0  0  0  0  0
    3.0571    0.3665   -2.7259 H   0  0  0  0  0  0  0  0  0  0  0  0
    5.1326    1.4932   -0.7489 H   0  0  0  0  0  0  0  0  0  0  0  0
    5.1019    1.7802   -2.4946 H   0  0  0  0  0  0  0  0  0  0  0  0
    4.7386   -2.1062   -3.1681 H   0  0  0  0  0  0  0  0  0  0  0  0
    4.9012   -4.4025   -3.8464 H   0  0  0  0  0  0  0  0  0  0  0  0
    6.7942   -6.9839   -1.8890 H   0  0  0  0  0  0  0  0  0  0  0  0
    5.6662   -8.9090   -3.1487 H   0  0  0  0  0  0  0  0  0  0  0  0
    7.3367   -8.5816   -3.6428 H   0  0  0  0  0  0  0  0  0  0  0  0
    6.0917  -10.0610   -5.2568 H   0  0  0  0  0  0  0  0  0  0  0  0
    3.9550   -7.5397   -9.5946 H   0  0  0  0  0  0  0  0  0  0  0  0
    1.8231   -7.0331  -10.6263 H   0  0  0  0  0  0  0  0  0  0  0  0
   -0.2576   -6.9530   -9.2763 H   0  0  0  0  0  0  0  0  0  0  0  0
   -0.1418   -7.3520   -6.8298 H   0  0  0  0  0  0  0  0  0  0  0  0
    1.9754   -7.8034   -5.7430 H   0  0  0  0  0  0  0  0  0  0  0  0
    7.3134   -5.2841   -0.3601 H   0  0  0  0  0  0  0  0  0  0  0  0
    7.1155   -2.9296    0.3381 H   0  0  0  0  0  0  0  0  0  0  0  0
  1  2  1  0  0  0  0
  1 29  1  0  0  0  0
  1 30  1  0  0  0  0
  1 31  1  0  0  0  0
  2  3  1  0  0  0  0
  2 32  1  0  0  0  0
  2 33  1  0  0  0  0
  3  4  1  0  0  0  0
  4  5  2  0  0  0  0
  4  6  1  0  0  0  0
  6  7  1  0  0  0  0
  6 28  2  0  0  0  0
  7  8  2  0  0  0  0
  7 34  1  0  0  0  0
  8  9  1  0  0  0  0
  8 35  1  0  0  0  0
  9 10  1  0  0  0  0
  9 27  2  0  0  0  0
 10 11  1  0  0  0  0
 10 36  1  0  0  0  0
 11 12  2  0  0  0  0
 11 13  1  0  0  0  0
 13 14  1  0  0  0  0
 13 37  1  0  0  0  0
 13 38  1  0  0  0  0
 14 15  1  0  0  0  0
 14 25  1  0  0  0  0
 14 39  1  0  0  0  0
 15 16  1  0  0  0  0
 16 17  2  0  0  0  0
 16 18  1  0  0  0  0
 18 19  1  0  0  0  0
 18 25  1  0  0  0  0
 19 20  1  0  0  0  0
 19 24  2  0  0  0  0
 20 21  2  0  0  0  0
 20 40  1  0  0  0  0
 21 22  1  0  0  0  0
 21 41  1  0  0  0  0
 22 23  2  0  0  0  0
 22 42  1  0  0  0  0
 23 24  1  0  0  0  0
 23 43  1  0  0  0  0
 24 44  1  0  0  0  0
 25 26  2  0  0  0  0
 27 28  1  0  0  0  0
 27 45  1  0  0  0  0
 28 46  1  0  0  0  0
M  END
$$$$
