
 OpenBabel07202414203D

 57 61  0  0  1  0  0  0  0  0999 V2000
    0.3117   -0.6276    0.9590 O   0  0  0  0  0  0  0  0  0  0  0  0
    1.0628    0.2642    0.1256 C   0  0  2  0  0  0  0  0  0  0  0  0
    1.8556    1.2159    1.0139 C   0  0  0  0  0  0  0  0  0  0  0  0
    0.8577    2.2926    1.4178 C   0  0  0  0  0  0  0  0  0  0  0  0
   -0.3020    2.1998    0.4288 C   0  0  0  0  0  0  0  0  0  0  0  0
    0.0780    1.1644   -0.6182 C   0  0  1  0  0  0  0  0  0  0  0  0
    0.8144    1.8004   -2.1400 S   0  0  0  0  0  0  0  0  0  0  0  0
    2.0059    2.5627   -1.8291 O   0  0  0  0  0  0  0  0  0  0  0  0
    0.8841    0.6981   -3.0742 O   0  0  0  0  0  0  0  0  0  0  0  0
   -0.3059    2.8905   -2.8040 N   0  0  0  0  0  0  0  0  0  0  0  0
   -0.3079    4.2981   -2.3094 C   0  0  0  0  0  0  0  0  0  0  0  0
   -1.0407    5.2399   -3.2606 C   0  0  3  0  0  0  0  0  0  0  0  0
   -0.2125    5.6877   -4.4634 C   0  0  0  0  0  0  0  0  0  0  0  0
   -0.3869    6.8152   -4.9246 O   0  0  0  0  0  0  0  0  0  0  0  0
    0.6452    4.7372   -4.9821 N   0  0  0  0  0  0  0  0  0  0  0  0
    1.4662    4.8860   -6.1324 C   0  0  0  0  0  0  0  0  0  0  0  0
    1.6921    6.1263   -6.7347 C   0  0  0  0  0  0  0  0  0  0  0  0
    2.3240    6.3079   -7.9165 N   0  0  0  0  0  0  0  0  0  0  0  0
    2.7935    5.1979   -8.5170 C   0  0  0  0  0  0  0  0  0  0  0  0
    2.7456    3.9194   -7.9639 C   0  0  0  0  0  0  0  0  0  0  0  0
    3.3603    2.8327   -8.6106 C   0  0  0  0  0  0  0  0  0  0  0  0
    3.3331    1.5608   -8.0456 C   0  0  0  0  0  0  0  0  0  0  0  0
    2.6703    1.3585   -6.8436 C   0  0  0  0  0  0  0  0  0  0  0  0
    2.0429    2.4300   -6.2002 C   0  0  0  0  0  0  0  0  0  0  0  0
    2.0686    3.7446   -6.7331 C   0  0  0  0  0  0  0  0  0  0  0  0
   -2.4054    4.7029   -3.6397 C   0  0  0  0  0  0  0  0  0  0  0  0
   -3.4320    5.5903   -4.0006 C   0  0  0  0  0  0  0  0  0  0  0  0
   -4.7010    5.1098   -4.3200 C   0  0  0  0  0  0  0  0  0  0  0  0
   -5.9640    6.2130   -4.7023 Cl  0  0  0  0  0  0  0  0  0  0  0  0
   -4.9578    3.7433   -4.3105 C   0  0  0  0  0  0  0  0  0  0  0  0
   -3.9465    2.8522   -3.9514 C   0  0  0  0  0  0  0  0  0  0  0  0
   -2.6682    3.3205   -3.5960 C   0  0  0  0  0  0  0  0  0  0  0  0
   -1.6470    2.3272   -3.0942 C   0  0  0  0  0  0  0  0  0  0  0  0
    0.9386   -1.0802    1.5523 H   0  0  0  0  0  0  0  0  0  0  0  0
    1.7046   -0.3377   -0.5240 H   0  0  0  0  0  0  0  0  0  0  0  0
    2.6819    1.6687    0.4566 H   0  0  0  0  0  0  0  0  0  0  0  0
    2.2767    0.7285    1.8990 H   0  0  0  0  0  0  0  0  0  0  0  0
    1.3217    3.2851    1.3953 H   0  0  0  0  0  0  0  0  0  0  0  0
    0.4880    2.1273    2.4344 H   0  0  0  0  0  0  0  0  0  0  0  0
   -0.5350    3.1828    0.0453 H   0  0  0  0  0  0  0  0  0  0  0  0
   -1.1989    1.8649    0.9602 H   0  0  0  0  0  0  0  0  0  0  0  0
   -0.8017    0.5894   -0.9298 H   0  0  0  0  0  0  0  0  0  0  0  0
    0.7191    4.6512   -2.1638 H   0  0  0  0  0  0  0  0  0  0  0  0
   -0.8305    4.3595   -1.3573 H   0  0  0  0  0  0  0  0  0  0  0  0
   -1.1991    6.1599   -2.6780 H   0  0  0  0  0  0  0  0  0  0  0  0
    0.5603    3.8024   -4.5969 H   0  0  0  0  0  0  0  0  0  0  0  0
    1.3780    7.0588   -6.2769 H   0  0  0  0  0  0  0  0  0  0  0  0
    3.2372    5.3753   -9.4933 H   0  0  0  0  0  0  0  0  0  0  0  0
    3.8858    2.9781   -9.5523 H   0  0  0  0  0  0  0  0  0  0  0  0
    3.8348    0.7327   -8.5391 H   0  0  0  0  0  0  0  0  0  0  0  0
    2.6429    0.3694   -6.3922 H   0  0  0  0  0  0  0  0  0  0  0  0
    1.5561    2.2095   -5.2558 H   0  0  0  0  0  0  0  0  0  0  0  0
   -3.2446    6.6632   -4.0157 H   0  0  0  0  0  0  0  0  0  0  0  0
   -5.9447    3.3668   -4.5671 H   0  0  0  0  0  0  0  0  0  0  0  0
   -4.1679    1.7864   -3.9297 H   0  0  0  0  0  0  0  0  0  0  0  0
   -1.5408    1.5335   -3.8428 H   0  0  0  0  0  0  0  0  0  0  0  0
   -2.0610    1.8977   -2.1752 H   0  0  0  0  0  0  0  0  0  0  0  0
  1  2  1  0  0  0  0
  1 34  1  0  0  0  0
  2  3  1  0  0  0  0
  2  6  1  0  0  0  0
  2 35  1  6  0  0  0
  3  4  1  0  0  0  0
  3 36  1  0  0  0  0
  3 37  1  0  0  0  0
  4  5  1  0  0  0  0
  4 38  1  0  0  0  0
  4 39  1  0  0  0  0
  5  6  1  0  0  0  0
  5 40  1  0  0  0  0
  5 41  1  0  0  0  0
  6  7  1  0  0  0  0
  6 42  1  6  0  0  0
  7  8  2  0  0  0  0
  7  9  2  0  0  0  0
  7 10  1  0  0  0  0
 10 11  1  0  0  0  0
 10 33  1  0  0  0  0
 11 12  1  0  0  0  0
 11 43  1  0  0  0  0
 11 44  1  0  0  0  0
 12 13  1  0  0  0  0
 12 26  1  0  0  0  0
 12 45  1  0  0  0  0
 13 14  2  0  0  0  0
 13 15  1  0  0  0  0
 15 16  1  0  0  0  0
 15 46  1  0  0  0  0
 16 17  1  0  0  0  0
 16 25  2  0  0  0  0
 17 18  2  0  0  0  0
 17 47  1  0  0  0  0
 18 19  1  0  0  0  0
 19 20  2  0  0  0  0
 19 48  1  0  0  0  0
 20 21  1  0  0  0  0
 20 25  1  0  0  0  0
 21 22  2  0  0  0  0
 21 49  1  0  0  0  0
 22 23  1  0  0  0  0
 22 50  1  0  0  0  0
 23 24  2  0  0  0  0
 23 51  1  0  0  0  0
 24 25  1  0  0  0  0
 24 52  1  0  0  0  0
 26 27  1  0  0  0  0
 26 32  2  0  0  0  0
 27 28  2  0  0  0  0
 27 53  1  0  0  0  0
 28 29  1  0  0  0  0
 28 30  1  0  0  0  0
 30 31  2  0  0  0  0
 30 54  1  0  0  0  0
 31 32  1  0  0  0  0
 31 55  1  0  0  0  0
 32 33  1  0  0  0  0
 33 56  1  0  0  0  0
 33 57  1  0  0  0  0
M  END
$$$$
