
 OpenBabel07202414133D

 62 64  0  0  1  0  0  0  0  0999 V2000
    8.0575    5.5639    4.5763 C   0  0  0  0  0  0  0  0  0  0  0  0
    6.5674    5.8127    4.3963 C   0  0  0  0  0  0  0  0  0  0  0  0
    5.8373    4.5152    4.1631 C   0  0  0  0  0  0  0  0  0  0  0  0
    5.6379    4.0521    2.8577 C   0  0  0  0  0  0  0  0  0  0  0  0
    5.0394    2.8158    2.6385 C   0  0  0  0  0  0  0  0  0  0  0  0
    4.6174    2.0378    3.7176 C   0  0  0  0  0  0  0  0  0  0  0  0
    4.7945    2.4846    5.0281 C   0  0  0  0  0  0  0  0  0  0  0  0
    5.4199    3.7201    5.2436 C   0  0  0  0  0  0  0  0  0  0  0  0
    4.4264    1.7305    6.1612 N   0  0  0  0  0  0  0  0  0  0  0  0
    3.6314    0.5993    6.1923 C   0  0  0  0  0  0  0  0  0  0  0  0
    3.0564    0.1192    5.2120 O   0  0  0  0  0  0  0  0  0  0  0  0
    3.6046   -0.1764    7.5378 C   0  0  3  0  0  0  0  0  0  0  0  0
    4.7383   -1.1922    7.6844 C   0  0  0  0  0  0  0  0  0  0  0  0
    4.7707   -2.0719    8.7764 C   0  0  0  0  0  0  0  0  0  0  0  0
    5.8562   -2.9254    8.9558 C   0  0  0  0  0  0  0  0  0  0  0  0
    6.8736   -2.8984    8.0196 C   0  0  0  0  0  0  0  0  0  0  0  0
    6.8619   -2.1081    6.9292 N   0  0  0  0  0  0  0  0  0  0  0  0
    5.8035   -1.2748    6.7873 C   0  0  0  0  0  0  0  0  0  0  0  0
    3.4510    0.6874    8.7437 N   0  0  0  0  0  0  0  0  0  0  0  0
    2.2129    0.5880    9.4385 C   0  0  0  0  0  0  0  0  0  0  0  0
    1.0283    1.0020    8.8240 C   0  0  0  0  0  0  0  0  0  0  0  0
   -0.1650    1.0426    9.5558 C   0  0  0  0  0  0  0  0  0  0  0  0
   -0.1901    0.6411   10.9007 C   0  0  0  0  0  0  0  0  0  0  0  0
    0.9894    0.1544   11.4831 C   0  0  0  0  0  0  0  0  0  0  0  0
    2.1799    0.1320   10.7611 C   0  0  0  0  0  0  0  0  0  0  0  0
   -1.4407    0.8126   11.7433 C   0  0  3  0  0  0  0  0  0  0  0  0
   -1.9726   -0.5361   12.2276 C   0  0  0  0  0  0  0  0  0  0  0  0
   -1.1501    1.5995   12.9098 O   0  0  0  0  0  0  0  0  0  0  0  0
   -0.8717    2.9645   12.6177 C   0  0  0  0  0  0  0  0  0  0  0  0
    4.5503    1.3867    9.2328 C   0  0  0  0  0  0  0  0  0  0  0  0
    5.6138    1.4515    8.6200 O   0  0  0  0  0  0  0  0  0  0  0  0
    4.3823    2.2013   10.4661 C   0  0  0  0  0  0  0  0  0  0  0  0
    5.4354    2.4120   11.2654 C   0  0  0  0  0  0  0  0  0  0  0  0
    8.5927    6.5106    4.6932 H   0  0  0  0  0  0  0  0  0  0  0  0
    8.4788    5.0362    3.7139 H   0  0  0  0  0  0  0  0  0  0  0  0
    8.2505    4.9553    5.4658 H   0  0  0  0  0  0  0  0  0  0  0  0
    6.4048    6.4896    3.5479 H   0  0  0  0  0  0  0  0  0  0  0  0
    6.1583    6.3212    5.2754 H   0  0  0  0  0  0  0  0  0  0  0  0
    5.9698    4.6427    2.0072 H   0  0  0  0  0  0  0  0  0  0  0  0
    4.9184    2.4422    1.6252 H   0  0  0  0  0  0  0  0  0  0  0  0
    4.1951    1.0625    3.4989 H   0  0  0  0  0  0  0  0  0  0  0  0
    5.5855    4.0770    6.2582 H   0  0  0  0  0  0  0  0  0  0  0  0
    4.8697    2.0099    7.0351 H   0  0  0  0  0  0  0  0  0  0  0  0
    2.6906   -0.7875    7.4658 H   0  0  0  0  0  0  0  0  0  0  0  0
    3.9654   -2.0809    9.5059 H   0  0  0  0  0  0  0  0  0  0  0  0
    5.9143   -3.5864    9.8127 H   0  0  0  0  0  0  0  0  0  0  0  0
    7.7531   -3.5265    8.1252 H   0  0  0  0  0  0  0  0  0  0  0  0
    5.8689   -0.6520    5.8987 H   0  0  0  0  0  0  0  0  0  0  0  0
    1.0271    1.3699    7.7995 H   0  0  0  0  0  0  0  0  0  0  0  0
   -1.0643    1.4313    9.0826 H   0  0  0  0  0  0  0  0  0  0  0  0
    0.9928   -0.1607   12.5251 H   0  0  0  0  0  0  0  0  0  0  0  0
    3.0822   -0.2296   11.2491 H   0  0  0  0  0  0  0  0  0  0  0  0
   -2.2332    1.3094   11.1697 H   0  0  0  0  0  0  0  0  0  0  0  0
   -1.2648   -1.0309   12.9029 H   0  0  0  0  0  0  0  0  0  0  0  0
   -2.1815   -1.2114   11.3921 H   0  0  0  0  0  0  0  0  0  0  0  0
   -2.8942   -0.3955   12.8031 H   0  0  0  0  0  0  0  0  0  0  0  0
   -0.6535    3.4760   13.5595 H   0  0  0  0  0  0  0  0  0  0  0  0
   -1.7369    3.4432   12.1503 H   0  0  0  0  0  0  0  0  0  0  0  0
    0.0071    3.0649   11.9738 H   0  0  0  0  0  0  0  0  0  0  0  0
    3.4152    2.6356   10.6811 H   0  0  0  0  0  0  0  0  0  0  0  0
    6.4109    1.9849   11.0444 H   0  0  0  0  0  0  0  0  0  0  0  0
    5.3419    3.0181   12.1593 H   0  0  0  0  0  0  0  0  0  0  0  0
  1  2  1  0  0  0  0
  1 34  1  0  0  0  0
  1 35  1  0  0  0  0
  1 36  1  0  0  0  0
  2  3  1  0  0  0  0
  2 37  1  0  0  0  0
  2 38  1  0  0  0  0
  3  4  1  0  0  0  0
  3  8  2  0  0  0  0
  4  5  2  0  0  0  0
  4 39  1  0  0  0  0
  5  6  1  0  0  0  0
  5 40  1  0  0  0  0
  6  7  2  0  0  0  0
  6 41  1  0  0  0  0
  7  8  1  0  0  0  0
  7  9  1  0  0  0  0
  8 42  1  0  0  0  0
  9 10  1  0  0  0  0
  9 43  1  0  0  0  0
 10 11  2  0  0  0  0
 10 12  1  0  0  0  0
 12 13  1  0  0  0  0
 12 19  1  0  0  0  0
 12 44  1  0  0  0  0
 13 14  1  0  0  0  0
 13 18  2  0  0  0  0
 14 15  2  0  0  0  0
 14 45  1  0  0  0  0
 15 16  1  0  0  0  0
 15 46  1  0  0  0  0
 16 17  2  0  0  0  0
 16 47  1  0  0  0  0
 17 18  1  0  0  0  0
 18 48  1  0  0  0  0
 19 20  1  0  0  0  0
 19 30  1  0  0  0  0
 20 21  1  0  0  0  0
 20 25  2  0  0  0  0
 21 22  2  0  0  0  0
 21 49  1  0  0  0  0
 22 23  1  0  0  0  0
 22 50  1  0  0  0  0
 23 24  2  0  0  0  0
 23 26  1  0  0  0  0
 24 25  1  0  0  0  0
 24 51  1  0  0  0  0
 25 52  1  0  0  0  0
 26 27  1  0  0  0  0
 26 28  1  0  0  0  0
 26 53  1  0  0  0  0
 27 54  1  0  0  0  0
 27 55  1  0  0  0  0
 27 56  1  0  0  0  0
 28 29  1  0  0  0  0
 29 57  1  0  0  0  0
 29 58  1  0  0  0  0
 29 59  1  0  0  0  0
 30 31  2  0  0  0  0
 30 32  1  0  0  0  0
 32 33  2  0  0  0  0
 32 60  1  0  0  0  0
 33 61  1  0  0  0  0
 33 62  1  0  0  0  0
M  END
$$$$
