
 OpenBabel07202414193D

 38 40  0  0  0  0  0  0  0  0999 V2000
   -0.5825    4.7601   -5.1836 O   0  0  0  0  0  0  0  0  0  0  0  0
    0.7114    4.8408   -4.5026 B   0  0  0  0  0  0  0  0  0  0  0  0
    1.9409    4.7734   -5.2927 O   0  0  0  0  0  0  0  0  0  0  0  0
    0.7754    4.9859   -2.9308 C   0  0  0  0  0  0  0  0  0  0  0  0
    2.0119    5.0265   -2.2596 C   0  0  0  0  0  0  0  0  0  0  0  0
    2.0611    5.1510   -0.8580 C   0  0  0  0  0  0  0  0  0  0  0  0
    3.3837    5.1415   -0.1286 C   0  0  0  0  0  0  0  0  0  0  0  0
    4.3345    6.2306   -0.5630 C   0  0  0  0  0  0  0  0  0  0  0  0
    5.4020    5.9046   -1.0668 O   0  0  0  0  0  0  0  0  0  0  0  0
    4.0495    7.5470   -0.3672 N   0  0  0  0  0  0  0  0  0  0  0  0
    5.0031    8.5563   -0.6855 C   0  0  0  0  0  0  0  0  0  0  0  0
    5.0375    9.1744   -1.9541 C   0  0  0  0  0  0  0  0  0  0  0  0
    4.1037    8.8567   -2.9574 C   0  0  0  0  0  0  0  0  0  0  0  0
    4.1721    9.4821   -4.2066 C   0  0  0  0  0  0  0  0  0  0  0  0
    5.1704   10.4228   -4.4711 C   0  0  0  0  0  0  0  0  0  0  0  0
    6.1040   10.7514   -3.4862 C   0  0  0  0  0  0  0  0  0  0  0  0
    6.0432   10.1366   -2.2272 C   0  0  0  0  0  0  0  0  0  0  0  0
    6.9717   10.4564   -1.2294 C   0  0  0  0  0  0  0  0  0  0  0  0
    6.9040    9.8528   -0.0162 N   0  0  0  0  0  0  0  0  0  0  0  0
    5.9560    8.9218    0.2729 C   0  0  0  0  0  0  0  0  0  0  0  0
    0.8599    5.2333   -0.1342 C   0  0  0  0  0  0  0  0  0  0  0  0
   -0.3698    5.1883   -0.7970 C   0  0  0  0  0  0  0  0  0  0  0  0
   -1.8634    5.2708    0.1204 Cl  0  0  0  0  0  0  0  0  0  0  0  0
   -0.4132    5.0648   -2.1883 C   0  0  0  0  0  0  0  0  0  0  0  0
   -0.5417    5.4459   -5.8972 H   0  0  0  0  0  0  0  0  0  0  0  0
    1.8167    3.9939   -5.8916 H   0  0  0  0  0  0  0  0  0  0  0  0
    2.9372    4.9523   -2.8186 H   0  0  0  0  0  0  0  0  0  0  0  0
    3.8579    4.1540   -0.3185 H   0  0  0  0  0  0  0  0  0  0  0  0
    3.2320    5.2292    0.9697 H   0  0  0  0  0  0  0  0  0  0  0  0
    3.1617    7.8227    0.0816 H   0  0  0  0  0  0  0  0  0  0  0  0
    3.3209    8.1310   -2.7804 H   0  0  0  0  0  0  0  0  0  0  0  0
    3.4494    9.2343   -4.9724 H   0  0  0  0  0  0  0  0  0  0  0  0
    5.2202   10.8990   -5.4415 H   0  0  0  0  0  0  0  0  0  0  0  0
    6.8727   11.4828   -3.7082 H   0  0  0  0  0  0  0  0  0  0  0  0
    7.7515   11.1872   -1.4140 H   0  0  0  0  0  0  0  0  0  0  0  0
    5.9528    8.4589    1.2509 H   0  0  0  0  0  0  0  0  0  0  0  0
    0.8756    5.3150    0.9458 H   0  0  0  0  0  0  0  0  0  0  0  0
   -1.3766    5.0274   -2.6832 H   0  0  0  0  0  0  0  0  0  0  0  0
  1  2  1  0  0  0  0
  1 25  1  0  0  0  0
  2  3  1  0  0  0  0
  2  4  1  0  0  0  0
  3 26  1  0  0  0  0
  4  5  2  0  0  0  0
  4 24  1  0  0  0  0
  5  6  1  0  0  0  0
  5 27  1  0  0  0  0
  6  7  1  0  0  0  0
  6 21  2  0  0  0  0
  7  8  1  0  0  0  0
  7 28  1  0  0  0  0
  7 29  1  0  0  0  0
  8  9  2  0  0  0  0
  8 10  1  0  0  0  0
 10 11  1  0  0  0  0
 10 30  1  0  0  0  0
 11 12  2  0  0  0  0
 11 20  1  0  0  0  0
 12 13  1  0  0  0  0
 12 17  1  0  0  0  0
 13 14  2  0  0  0  0
 13 31  1  0  0  0  0
 14 15  1  0  0  0  0
 14 32  1  0  0  0  0
 15 16  2  0  0  0  0
 15 33  1  0  0  0  0
 16 17  1  0  0  0  0
 16 34  1  0  0  0  0
 17 18  2  0  0  0  0
 18 19  1  0  0  0  0
 18 35  1  0  0  0  0
 19 20  2  0  0  0  0
 20 36  1  0  0  0  0
 21 22  1  0  0  0  0
 21 37  1  0  0  0  0
 22 23  1  0  0  0  0
 22 24  2  0  0  0  0
 24 38  1  0  0  0  0
M  END
$$$$
