
 OpenBabel07202414133D

 42 43  0  0  0  0  0  0  0  0999 V2000
    1.6937    0.4709   -0.5366 C   0  0  0  0  0  0  0  0  0  0  0  0
    2.6618    0.7328    0.6041 C   0  0  0  0  0  0  0  0  0  0  0  0
    3.5476    1.7758    0.1866 O   0  0  0  0  0  0  0  0  0  0  0  0
    4.6300    1.3517   -0.5112 C   0  0  0  0  0  0  0  0  0  0  0  0
    5.0685    0.2127   -0.5676 O   0  0  0  0  0  0  0  0  0  0  0  0
    5.0795    2.4850   -1.3330 C   0  0  0  0  0  0  0  0  0  0  0  0
    6.0604    2.3315   -2.2294 C   0  0  0  0  0  0  0  0  0  0  0  0
    6.5279    3.2493   -3.1561 N   0  0  0  0  0  0  0  0  0  0  0  0
    6.0225    4.6362   -3.2669 C   0  0  0  0  0  0  0  0  0  0  0  0
    5.7891    5.0100   -4.7498 C   0  0  0  0  0  0  0  0  0  0  0  0
    7.0270    4.8176   -5.5838 N   0  0  0  0  0  0  0  0  0  0  0  0
    8.2985    5.9431   -5.3521 S   0  0  0  0  0  0  0  0  0  0  0  0
    8.2231    6.4848   -4.0071 O   0  0  0  0  0  0  0  0  0  0  0  0
    9.5221    5.3252   -5.8195 O   0  0  0  0  0  0  0  0  0  0  0  0
    7.9506    7.2912   -6.4651 C   0  0  0  0  0  0  0  0  0  0  0  0
    7.1911    8.3824   -6.0303 C   0  0  0  0  0  0  0  0  0  0  0  0
    7.0887    9.5194   -6.8370 C   0  0  0  0  0  0  0  0  0  0  0  0
    7.7706    9.5810   -8.0536 C   0  0  0  0  0  0  0  0  0  0  0  0
    8.5522    8.5048   -8.4725 C   0  0  0  0  0  0  0  0  0  0  0  0
    8.6400    7.3568   -7.6829 C   0  0  0  0  0  0  0  0  0  0  0  0
    7.4560    3.3742   -5.4589 C   0  0  0  0  0  0  0  0  0  0  0  0
    7.7235    2.9814   -3.9923 C   0  0  0  0  0  0  0  0  0  0  0  0
    0.9683   -0.3014   -0.2744 H   0  0  0  0  0  0  0  0  0  0  0  0
    2.2326    0.1598   -1.4388 H   0  0  0  0  0  0  0  0  0  0  0  0
    1.1604    1.3917   -0.7979 H   0  0  0  0  0  0  0  0  0  0  0  0
    3.2026   -0.1756    0.8916 H   0  0  0  0  0  0  0  0  0  0  0  0
    2.1208    1.0879    1.4866 H   0  0  0  0  0  0  0  0  0  0  0  0
    4.5226    3.4039   -1.2242 H   0  0  0  0  0  0  0  0  0  0  0  0
    6.5702    1.3684   -2.2950 H   0  0  0  0  0  0  0  0  0  0  0  0
    6.7258    5.3027   -2.7654 H   0  0  0  0  0  0  0  0  0  0  0  0
    5.0702    4.7628   -2.7435 H   0  0  0  0  0  0  0  0  0  0  0  0
    5.3919    6.0229   -4.8554 H   0  0  0  0  0  0  0  0  0  0  0  0
    5.0174    4.3338   -5.1468 H   0  0  0  0  0  0  0  0  0  0  0  0
    6.7170    8.3777   -5.0519 H   0  0  0  0  0  0  0  0  0  0  0  0
    6.5060   10.3752   -6.5034 H   0  0  0  0  0  0  0  0  0  0  0  0
    7.7140   10.4790   -8.6651 H   0  0  0  0  0  0  0  0  0  0  0  0
    9.1181    8.5712   -9.3987 H   0  0  0  0  0  0  0  0  0  0  0  0
    9.2864    6.5413   -7.9999 H   0  0  0  0  0  0  0  0  0  0  0  0
    8.3287    3.1779   -6.0883 H   0  0  0  0  0  0  0  0  0  0  0  0
    6.6495    2.7466   -5.8626 H   0  0  0  0  0  0  0  0  0  0  0  0
    8.5759    3.5400   -3.5892 H   0  0  0  0  0  0  0  0  0  0  0  0
    7.9896    1.9178   -3.9602 H   0  0  0  0  0  0  0  0  0  0  0  0
  1  2  1  0  0  0  0
  1 23  1  0  0  0  0
  1 24  1  0  0  0  0
  1 25  1  0  0  0  0
  2  3  1  0  0  0  0
  2 26  1  0  0  0  0
  2 27  1  0  0  0  0
  3  4  1  0  0  0  0
  4  5  2  0  0  0  0
  4  6  1  0  0  0  0
  6  7  2  0  0  0  0
  6 28  1  0  0  0  0
  7  8  1  0  0  0  0
  7 29  1  0  0  0  0
  8  9  1  0  0  0  0
  8 22  1  0  0  0  0
  9 10  1  0  0  0  0
  9 30  1  0  0  0  0
  9 31  1  0  0  0  0
 10 11  1  0  0  0  0
 10 32  1  0  0  0  0
 10 33  1  0  0  0  0
 11 12  1  0  0  0  0
 11 21  1  0  0  0  0
 12 13  2  0  0  0  0
 12 14  2  0  0  0  0
 12 15  1  0  0  0  0
 15 16  1  0  0  0  0
 15 20  2  0  0  0  0
 16 17  2  0  0  0  0
 16 34  1  0  0  0  0
 17 18  1  0  0  0  0
 17 35  1  0  0  0  0
 18 19  2  0  0  0  0
 18 36  1  0  0  0  0
 19 20  1  0  0  0  0
 19 37  1  0  0  0  0
 20 38  1  0  0  0  0
 21 22  1  0  0  0  0
 21 39  1  0  0  0  0
 21 40  1  0  0  0  0
 22 41  1  0  0  0  0
 22 42  1  0  0  0  0
M  END
$$$$
