
 OpenBabel07202414203D

 47 50  0  0  0  0  0  0  0  0999 V2000
    4.7048    0.3642   -1.0075 O   0  5  0  0  0  0  0  0  0  0  0  0
    3.5784   -0.1372   -0.8879 N   0  3  0  0  0  0  0  0  0  0  0  0
    3.3294   -1.3482   -0.8082 O   0  0  0  0  0  0  0  0  0  0  0  0
    2.4585    0.7627   -0.7830 C   0  0  0  0  0  0  0  0  0  0  0  0
    2.5279    1.7272    0.2173 C   0  0  0  0  0  0  0  0  0  0  0  0
    1.5245    2.5896    0.4723 N   0  0  0  0  0  0  0  0  0  0  0  0
    0.4079    2.4466   -0.2740 C   0  0  0  0  0  0  0  0  0  0  0  0
    0.2500    1.5021   -1.2885 C   0  0  0  0  0  0  0  0  0  0  0  0
   -1.4954    1.3404   -2.0252 Br  0  0  0  0  0  0  0  0  0  0  0  0
    1.3215    0.6387   -1.6062 C   0  0  0  0  0  0  0  0  0  0  0  0
    1.2873   -0.2543   -2.6995 N   0  0  0  0  0  0  0  0  0  0  0  0
    0.8528   -0.0529   -4.0270 C   0  0  0  0  0  0  0  0  0  0  0  0
    0.4813   -1.1544   -4.8071 C   0  0  0  0  0  0  0  0  0  0  0  0
    0.0437   -0.9739   -6.1214 C   0  0  0  0  0  0  0  0  0  0  0  0
   -0.2990   -2.3453   -7.1038 Cl  0  0  0  0  0  0  0  0  0  0  0  0
   -0.0932    0.3037   -6.6609 C   0  0  0  0  0  0  0  0  0  0  0  0
    0.2180    1.4240   -5.8839 C   0  0  0  0  0  0  0  0  0  0  0  0
    0.0408    2.8190   -6.4369 C   0  0  0  0  0  0  0  0  0  0  0  0
    1.2301    3.4365   -7.1397 C   0  0  0  0  0  0  0  0  0  0  0  0
    1.1600    4.6099   -7.5282 O   0  0  0  0  0  0  0  0  0  0  0  0
    2.3187    2.6342   -7.3537 N   0  0  0  0  0  0  0  0  0  0  0  0
    3.4904    3.1177   -7.9799 C   0  0  0  0  0  0  0  0  0  0  0  0
    4.0981    4.2941   -7.5413 C   0  0  0  0  0  0  0  0  0  0  0  0
    5.2634    4.7767   -8.0293 N   0  0  0  0  0  0  0  0  0  0  0  0
    5.8316    4.0577   -9.0199 C   0  0  0  0  0  0  0  0  0  0  0  0
    5.3001    2.8820   -9.5614 C   0  0  0  0  0  0  0  0  0  0  0  0
    5.9384    2.1939  -10.6115 C   0  0  0  0  0  0  0  0  0  0  0  0
    5.3634    1.0459  -11.1556 C   0  0  0  0  0  0  0  0  0  0  0  0
    4.1541    0.5733  -10.6713 C   0  0  0  0  0  0  0  0  0  0  0  0
    3.5189    1.2402   -9.6222 C   0  0  0  0  0  0  0  0  0  0  0  0
    4.0886    2.3926   -9.0332 C   0  0  0  0  0  0  0  0  0  0  0  0
    0.7254    1.2293   -4.5878 C   0  0  0  0  0  0  0  0  0  0  0  0
    3.3941    1.8305    0.8669 H   0  0  0  0  0  0  0  0  0  0  0  0
   -0.4024    3.1250   -0.0116 H   0  0  0  0  0  0  0  0  0  0  0  0
    1.5862   -1.2052   -2.4845 H   0  0  0  0  0  0  0  0  0  0  0  0
    0.5366   -2.1605   -4.3994 H   0  0  0  0  0  0  0  0  0  0  0  0
   -0.4386    0.4237   -7.6858 H   0  0  0  0  0  0  0  0  0  0  0  0
   -0.2329    3.4983   -5.6186 H   0  0  0  0  0  0  0  0  0  0  0  0
   -0.8032    2.8265   -7.1415 H   0  0  0  0  0  0  0  0  0  0  0  0
    2.1463    1.6374   -7.4175 H   0  0  0  0  0  0  0  0  0  0  0  0
    3.6793    4.8780   -6.7257 H   0  0  0  0  0  0  0  0  0  0  0  0
    6.7652    4.4713   -9.3899 H   0  0  0  0  0  0  0  0  0  0  0  0
    6.8760    2.5602  -11.0181 H   0  0  0  0  0  0  0  0  0  0  0  0
    5.8655    0.5273  -11.9722 H   0  0  0  0  0  0  0  0  0  0  0  0
    3.6916   -0.3083  -11.1079 H   0  0  0  0  0  0  0  0  0  0  0  0
    2.5549    0.8584   -9.2974 H   0  0  0  0  0  0  0  0  0  0  0  0
    1.0225    2.1002   -4.0069 H   0  0  0  0  0  0  0  0  0  0  0  0
  1  2  1  0  0  0  0
  2  3  2  0  0  0  0
  2  4  1  0  0  0  0
  4  5  2  0  0  0  0
  4 10  1  0  0  0  0
  5  6  1  0  0  0  0
  5 33  1  0  0  0  0
  6  7  2  0  0  0  0
  7  8  1  0  0  0  0
  7 34  1  0  0  0  0
  8  9  1  0  0  0  0
  8 10  2  0  0  0  0
 10 11  1  0  0  0  0
 11 12  1  0  0  0  0
 11 35  1  0  0  0  0
 12 13  2  0  0  0  0
 12 32  1  0  0  0  0
 13 14  1  0  0  0  0
 13 36  1  0  0  0  0
 14 15  1  0  0  0  0
 14 16  2  0  0  0  0
 16 17  1  0  0  0  0
 16 37  1  0  0  0  0
 17 18  1  0  0  0  0
 17 32  2  0  0  0  0
 18 19  1  0  0  0  0
 18 38  1  0  0  0  0
 18 39  1  0  0  0  0
 19 20  2  0  0  0  0
 19 21  1  0  0  0  0
 21 22  1  0  0  0  0
 21 40  1  0  0  0  0
 22 23  2  0  0  0  0
 22 31  1  0  0  0  0
 23 24  1  0  0  0  0
 23 41  1  0  0  0  0
 24 25  2  0  0  0  0
 25 26  1  0  0  0  0
 25 42  1  0  0  0  0
 26 27  2  0  0  0  0
 26 31  1  0  0  0  0
 27 28  1  0  0  0  0
 27 43  1  0  0  0  0
 28 29  2  0  0  0  0
 28 44  1  0  0  0  0
 29 30  1  0  0  0  0
 29 45  1  0  0  0  0
 30 31  2  0  0  0  0
 30 46  1  0  0  0  0
 32 47  1  0  0  0  0
M  CHG  2   1  -1   2   1
M  END
$$$$
