
 OpenBabel07202414153D

 37 39  0  0  1  0  0  0  0  0999 V2000
    3.2524   -0.9863    0.6644 C   0  0  0  0  0  0  0  0  0  0  0  0
    2.4927    0.1001   -0.1029 C   0  0  1  0  0  0  0  0  0  0  0  0
    3.0113    0.2024   -1.5427 C   0  0  0  0  0  0  0  0  0  0  0  0
    3.6173    1.2011   -1.9270 O   0  0  0  0  0  0  0  0  0  0  0  0
    2.7458   -0.8961   -2.3450 N   0  0  0  0  0  0  0  0  0  0  0  0
    3.1963   -0.9554   -3.6864 C   0  0  0  0  0  0  0  0  0  0  0  0
    4.5499   -0.7807   -3.9796 C   0  0  0  0  0  0  0  0  0  0  0  0
    5.0865   -0.9152   -5.2128 N   0  0  0  0  0  0  0  0  0  0  0  0
    4.2237   -1.2112   -6.2090 C   0  0  0  0  0  0  0  0  0  0  0  0
    2.8464   -1.3837   -6.0467 C   0  0  0  0  0  0  0  0  0  0  0  0
    2.0066   -1.6656   -7.1394 C   0  0  0  0  0  0  0  0  0  0  0  0
    0.6300   -1.7918   -6.9641 C   0  0  0  0  0  0  0  0  0  0  0  0
    0.0769   -1.6243   -5.7003 C   0  0  0  0  0  0  0  0  0  0  0  0
    0.9023   -1.3563   -4.6048 C   0  0  0  0  0  0  0  0  0  0  0  0
    2.3072   -1.2503   -4.7468 C   0  0  0  0  0  0  0  0  0  0  0  0
    0.9825   -0.0713   -0.0257 C   0  0  0  0  0  0  0  0  0  0  0  0
    0.3854   -1.3391    0.0806 C   0  0  0  0  0  0  0  0  0  0  0  0
   -0.9999   -1.4831    0.1616 C   0  0  0  0  0  0  0  0  0  0  0  0
   -1.8088   -0.3547    0.1367 C   0  0  0  0  0  0  0  0  0  0  0  0
   -1.2420    0.9064    0.0324 C   0  0  0  0  0  0  0  0  0  0  0  0
   -2.2552    2.2973    0.0211 Cl  0  0  0  0  0  0  0  0  0  0  0  0
    0.1465    1.0563   -0.0557 C   0  0  0  0  0  0  0  0  0  0  0  0
    4.3219   -0.7644    0.7072 H   0  0  0  0  0  0  0  0  0  0  0  0
    3.1519   -1.9695    0.1932 H   0  0  0  0  0  0  0  0  0  0  0  0
    2.8776   -1.0648    1.6916 H   0  0  0  0  0  0  0  0  0  0  0  0
    2.7422    1.0552    0.3826 H   0  0  0  0  0  0  0  0  0  0  0  0
    1.9092   -1.4174   -2.1215 H   0  0  0  0  0  0  0  0  0  0  0  0
    5.2727   -0.5680   -3.1963 H   0  0  0  0  0  0  0  0  0  0  0  0
    4.6891   -1.2997   -7.1879 H   0  0  0  0  0  0  0  0  0  0  0  0
    2.4218   -1.7766   -8.1392 H   0  0  0  0  0  0  0  0  0  0  0  0
   -0.0105   -2.0047   -7.8163 H   0  0  0  0  0  0  0  0  0  0  0  0
   -1.0001   -1.6892   -5.5656 H   0  0  0  0  0  0  0  0  0  0  0  0
    0.4238   -1.1887   -3.6433 H   0  0  0  0  0  0  0  0  0  0  0  0
    0.9865   -2.2448    0.1234 H   0  0  0  0  0  0  0  0  0  0  0  0
   -1.4348   -2.4742    0.2570 H   0  0  0  0  0  0  0  0  0  0  0  0
   -2.8871   -0.4428    0.1919 H   0  0  0  0  0  0  0  0  0  0  0  0
    0.5717    2.0569   -0.1249 H   0  0  0  0  0  0  0  0  0  0  0  0
  1  2  1  0  0  0  0
  1 23  1  0  0  0  0
  1 24  1  0  0  0  0
  1 25  1  0  0  0  0
  2  3  1  0  0  0  0
  2 16  1  0  0  0  0
  2 26  1  1  0  0  0
  3  4  2  0  0  0  0
  3  5  1  0  0  0  0
  5  6  1  0  0  0  0
  5 27  1  0  0  0  0
  6  7  1  0  0  0  0
  6 15  2  0  0  0  0
  7  8  2  0  0  0  0
  7 28  1  0  0  0  0
  8  9  1  0  0  0  0
  9 10  2  0  0  0  0
  9 29  1  0  0  0  0
 10 11  1  0  0  0  0
 10 15  1  0  0  0  0
 11 12  2  0  0  0  0
 11 30  1  0  0  0  0
 12 13  1  0  0  0  0
 12 31  1  0  0  0  0
 13 14  2  0  0  0  0
 13 32  1  0  0  0  0
 14 15  1  0  0  0  0
 14 33  1  0  0  0  0
 16 17  1  0  0  0  0
 16 22  2  0  0  0  0
 17 18  2  0  0  0  0
 17 34  1  0  0  0  0
 18 19  1  0  0  0  0
 18 35  1  0  0  0  0
 19 20  2  0  0  0  0
 19 36  1  0  0  0  0
 20 21  1  0  0  0  0
 20 22  1  0  0  0  0
 22 37  1  0  0  0  0
M  END
$$$$
