
 OpenBabel07202414153D

 64 68  0  0  1  0  0  0  0  0999 V2000
   16.2219    4.0477    1.9871 C   0  0  0  0  0  0  0  0  0  0  0  0
   14.8417    3.7822    1.7552 O   0  0  0  0  0  0  0  0  0  0  0  0
   14.2012    4.5979    0.8599 C   0  0  0  0  0  0  0  0  0  0  0  0
   14.7759    5.6893    0.2076 C   0  0  0  0  0  0  0  0  0  0  0  0
   14.0188    6.4519   -0.6805 C   0  0  0  0  0  0  0  0  0  0  0  0
   12.6937    6.1140   -0.9425 C   0  0  0  0  0  0  0  0  0  0  0  0
   12.1074    5.0010   -0.3267 C   0  0  0  0  0  0  0  0  0  0  0  0
   10.6862    4.6350   -0.6619 C   0  0  0  0  0  0  0  0  0  0  0  0
   10.5198    4.4225   -2.0877 N   0  0  0  0  0  0  0  0  0  0  0  0
    9.3227    4.6569   -2.7189 C   0  0  0  0  0  0  0  0  0  0  0  0
    8.3375    5.0899   -2.1244 O   0  0  0  0  0  0  0  0  0  0  0  0
    9.2263    4.2309   -4.1884 C   0  0  0  0  0  0  0  0  0  0  0  0
   10.4912    4.3067   -4.9586 N   0  0  0  0  0  0  0  0  0  0  0  0
   10.9855    5.7028   -5.1686 C   0  0  0  0  0  0  0  0  0  0  0  0
   11.5879    6.0668   -6.5804 C   0  0  2  0  0  0  0  0  0  0  0  0
   10.5561    6.7781   -7.5093 C   0  0  0  0  0  0  0  0  0  0  0  0
    9.5315    7.2947   -7.0749 O   0  0  0  0  0  0  0  0  0  0  0  0
   10.9848    6.8641   -8.8238 N   0  0  0  0  0  0  0  0  0  0  0  0
   10.3973    7.5202   -9.9420 C   0  0  0  0  0  0  0  0  0  0  0  0
    9.1826    8.1900   -9.9150 C   0  0  0  0  0  0  0  0  0  0  0  0
    8.6080    8.7805  -10.9989 N   0  0  0  0  0  0  0  0  0  0  0  0
    9.2459    8.6413  -12.1805 C   0  0  0  0  0  0  0  0  0  0  0  0
   10.4480    7.9501  -12.3516 C   0  0  0  0  0  0  0  0  0  0  0  0
   11.0230    7.7532  -13.6237 C   0  0  0  0  0  0  0  0  0  0  0  0
   12.2430    7.0933  -13.7663 C   0  0  0  0  0  0  0  0  0  0  0  0
   12.9412    6.6908  -12.6363 C   0  0  0  0  0  0  0  0  0  0  0  0
   12.3695    6.8706  -11.3757 C   0  0  0  0  0  0  0  0  0  0  0  0
   11.0800    7.4363  -11.1938 C   0  0  0  0  0  0  0  0  0  0  0  0
   12.2527    4.8282   -7.1847 C   0  0  0  0  0  0  0  0  0  0  0  0
   13.4889    4.8490   -7.8436 C   0  0  0  0  0  0  0  0  0  0  0  0
   14.0752    3.6456   -8.2484 C   0  0  0  0  0  0  0  0  0  0  0  0
   15.5945    3.6671   -9.0570 Cl  0  0  0  0  0  0  0  0  0  0  0  0
   13.4542    2.4243   -7.9893 C   0  0  0  0  0  0  0  0  0  0  0  0
   12.2105    2.4007   -7.3612 C   0  0  0  0  0  0  0  0  0  0  0  0
   11.6017    3.5995   -6.9805 C   0  0  0  0  0  0  0  0  0  0  0  0
   10.2863    3.6365   -6.2497 C   0  0  0  0  0  0  0  0  0  0  0  0
   12.8652    4.2649    0.5973 C   0  0  0  0  0  0  0  0  0  0  0  0
   16.6034    3.2833    2.6708 H   0  0  0  0  0  0  0  0  0  0  0  0
   16.3594    5.0226    2.4672 H   0  0  0  0  0  0  0  0  0  0  0  0
   16.8022    3.9793    1.0604 H   0  0  0  0  0  0  0  0  0  0  0  0
   15.8080    5.9819    0.3739 H   0  0  0  0  0  0  0  0  0  0  0  0
   14.4649    7.3099   -1.1762 H   0  0  0  0  0  0  0  0  0  0  0  0
   12.1126    6.7183   -1.6363 H   0  0  0  0  0  0  0  0  0  0  0  0
   10.0109    5.4276   -0.3133 H   0  0  0  0  0  0  0  0  0  0  0  0
   10.3844    3.7075   -0.1576 H   0  0  0  0  0  0  0  0  0  0  0  0
   11.2441    3.9450   -2.6131 H   0  0  0  0  0  0  0  0  0  0  0  0
    8.4389    4.8151   -4.6751 H   0  0  0  0  0  0  0  0  0  0  0  0
    8.8995    3.1820   -4.1508 H   0  0  0  0  0  0  0  0  0  0  0  0
   11.8199    5.8010   -4.4571 H   0  0  0  0  0  0  0  0  0  0  0  0
   10.2467    6.4483   -4.8613 H   0  0  0  0  0  0  0  0  0  0  0  0
   12.3731    6.8176   -6.4076 H   0  0  0  0  0  0  0  0  0  0  0  0
   11.7843    6.3055   -9.0437 H   0  0  0  0  0  0  0  0  0  0  0  0
    8.5801    8.2750   -9.0141 H   0  0  0  0  0  0  0  0  0  0  0  0
    8.7582    9.1284  -13.0223 H   0  0  0  0  0  0  0  0  0  0  0  0
   10.5077    8.0929  -14.5226 H   0  0  0  0  0  0  0  0  0  0  0  0
   12.6600    6.9074  -14.7525 H   0  0  0  0  0  0  0  0  0  0  0  0
   13.9134    6.2236  -12.7249 H   0  0  0  0  0  0  0  0  0  0  0  0
   12.9762    6.5697  -10.5289 H   0  0  0  0  0  0  0  0  0  0  0  0
   14.0148    5.7847   -8.0160 H   0  0  0  0  0  0  0  0  0  0  0  0
   13.9372    1.4879   -8.2575 H   0  0  0  0  0  0  0  0  0  0  0  0
   11.7377    1.4469   -7.1370 H   0  0  0  0  0  0  0  0  0  0  0  0
    9.9148    2.6146   -6.1129 H   0  0  0  0  0  0  0  0  0  0  0  0
    9.5415    4.1620   -6.8664 H   0  0  0  0  0  0  0  0  0  0  0  0
   12.4244    3.4177    1.1193 H   0  0  0  0  0  0  0  0  0  0  0  0
  1  2  1  0  0  0  0
  1 38  1  0  0  0  0
  1 39  1  0  0  0  0
  1 40  1  0  0  0  0
  2  3  1  0  0  0  0
  3  4  1  0  0  0  0
  3 37  2  0  0  0  0
  4  5  2  0  0  0  0
  4 41  1  0  0  0  0
  5  6  1  0  0  0  0
  5 42  1  0  0  0  0
  6  7  2  0  0  0  0
  6 43  1  0  0  0  0
  7  8  1  0  0  0  0
  7 37  1  0  0  0  0
  8  9  1  0  0  0  0
  8 44  1  0  0  0  0
  8 45  1  0  0  0  0
  9 10  1  0  0  0  0
  9 46  1  0  0  0  0
 10 11  2  0  0  0  0
 10 12  1  0  0  0  0
 12 13  1  0  0  0  0
 12 47  1  0  0  0  0
 12 48  1  0  0  0  0
 13 14  1  0  0  0  0
 13 36  1  0  0  0  0
 14 15  1  0  0  0  0
 14 49  1  0  0  0  0
 14 50  1  0  0  0  0
 15 29  1  0  0  0  0
 15 16  1  0  0  0  0
 15 51  1  1  0  0  0
 16 17  2  0  0  0  0
 16 18  1  0  0  0  0
 18 19  1  0  0  0  0
 18 52  1  0  0  0  0
 19 20  1  0  0  0  0
 19 28  2  0  0  0  0
 20 21  2  0  0  0  0
 20 53  1  0  0  0  0
 21 22  1  0  0  0  0
 22 23  2  0  0  0  0
 22 54  1  0  0  0  0
 23 24  1  0  0  0  0
 23 28  1  0  0  0  0
 24 25  2  0  0  0  0
 24 55  1  0  0  0  0
 25 26  1  0  0  0  0
 25 56  1  0  0  0  0
 26 27  2  0  0  0  0
 26 57  1  0  0  0  0
 27 28  1  0  0  0  0
 27 58  1  0  0  0  0
 29 30  1  0  0  0  0
 29 35  2  0  0  0  0
 30 31  2  0  0  0  0
 30 59  1  0  0  0  0
 31 32  1  0  0  0  0
 31 33  1  0  0  0  0
 33 34  2  0  0  0  0
 33 60  1  0  0  0  0
 34 35  1  0  0  0  0
 34 61  1  0  0  0  0
 35 36  1  0  0  0  0
 36 62  1  0  0  0  0
 36 63  1  0  0  0  0
 37 64  1  0  0  0  0
M  END
$$$$
