
 OpenBabel07202414123D

 65 68  0  0  1  0  0  0  0  0999 V2000
    2.0973    2.1228    1.3052 C   0  0  0  0  0  0  0  0  0  0  0  0
    3.1125    1.2149    0.5982 C   0  0  0  0  0  0  0  0  0  0  0  0
    4.1588    2.0845   -0.0976 C   0  0  0  0  0  0  0  0  0  0  0  0
    3.7153    0.2558    1.6297 C   0  0  0  0  0  0  0  0  0  0  0  0
    4.9527   -0.8814    0.9899 S   0  0  0  0  0  0  0  0  0  0  0  0
    4.3615   -1.6689   -0.0713 O   0  0  0  0  0  0  0  0  0  0  0  0
    6.1726   -0.1374    0.7823 O   0  0  0  0  0  0  0  0  0  0  0  0
    5.2742   -1.9190    2.2977 N   0  0  0  0  0  0  0  0  0  0  0  0
    4.8891   -3.3493    2.1574 C   0  0  0  0  0  0  0  0  0  0  0  0
    5.6582   -4.2361    3.1526 C   0  0  3  0  0  0  0  0  0  0  0  0
    7.1316   -4.4419    2.7508 C   0  0  0  0  0  0  0  0  0  0  0  0
    7.5863   -5.5811    2.6117 O   0  0  0  0  0  0  0  0  0  0  0  0
    7.8470   -3.2681    2.6024 N   0  0  0  0  0  0  0  0  0  0  0  0
    9.1479   -3.0870    2.0770 C   0  0  0  0  0  0  0  0  0  0  0  0
    9.9335   -4.1434    1.6205 C   0  0  0  0  0  0  0  0  0  0  0  0
   11.0534   -3.9918    0.8757 N   0  0  0  0  0  0  0  0  0  0  0  0
   11.4644   -2.7266    0.6615 C   0  0  0  0  0  0  0  0  0  0  0  0
   10.8904   -1.6046    1.2542 C   0  0  0  0  0  0  0  0  0  0  0  0
   11.5119   -0.3488    1.1830 C   0  0  0  0  0  0  0  0  0  0  0  0
   10.9625    0.7582    1.8312 C   0  0  0  0  0  0  0  0  0  0  0  0
    9.7420    0.6607    2.5088 C   0  0  0  0  0  0  0  0  0  0  0  0
    9.1036    1.8645    3.2023 C   0  0  0  0  0  0  0  0  0  0  0  0
   10.1327    2.7911    3.8690 C   0  0  0  0  0  0  0  0  0  0  0  0
    8.2459    2.6595    2.2147 C   0  0  0  0  0  0  0  0  0  0  0  0
    8.2192    1.4148    4.2456 O   0  0  0  0  0  0  0  0  0  0  0  0
    9.1047   -0.5969    2.5208 C   0  0  0  0  0  0  0  0  0  0  0  0
    9.6799   -1.7691    1.9560 C   0  0  0  0  0  0  0  0  0  0  0  0
    5.5184   -3.6985    4.5666 C   0  0  0  0  0  0  0  0  0  0  0  0
    5.5427   -4.5776    5.6609 C   0  0  0  0  0  0  0  0  0  0  0  0
    5.4207   -4.0785    6.9568 C   0  0  0  0  0  0  0  0  0  0  0  0
    5.3974   -5.1586    8.2935 Cl  0  0  0  0  0  0  0  0  0  0  0  0
    5.2973   -2.7101    7.1781 C   0  0  0  0  0  0  0  0  0  0  0  0
    5.2655   -1.8339    6.1027 C   0  0  0  0  0  0  0  0  0  0  0  0
    5.3605   -2.3208    4.7846 C   0  0  0  0  0  0  0  0  0  0  0  0
    5.1772   -1.3450    3.6528 C   0  0  0  0  0  0  0  0  0  0  0  0
    1.6105    2.7966    0.5927 H   0  0  0  0  0  0  0  0  0  0  0  0
    2.5839    2.7394    2.0706 H   0  0  0  0  0  0  0  0  0  0  0  0
    1.3162    1.5334    1.7969 H   0  0  0  0  0  0  0  0  0  0  0  0
    2.5829    0.6332   -0.1654 H   0  0  0  0  0  0  0  0  0  0  0  0
    4.7824    2.6159    0.6293 H   0  0  0  0  0  0  0  0  0  0  0  0
    3.6783    2.8304   -0.7398 H   0  0  0  0  0  0  0  0  0  0  0  0
    4.8103    1.4849   -0.7391 H   0  0  0  0  0  0  0  0  0  0  0  0
    2.9157   -0.3599    2.0552 H   0  0  0  0  0  0  0  0  0  0  0  0
    4.1989    0.8338    2.4245 H   0  0  0  0  0  0  0  0  0  0  0  0
    5.1092   -3.7014    1.1427 H   0  0  0  0  0  0  0  0  0  0  0  0
    3.8091   -3.4358    2.3265 H   0  0  0  0  0  0  0  0  0  0  0  0
    5.1876   -5.2290    3.1069 H   0  0  0  0  0  0  0  0  0  0  0  0
    7.2972   -2.4209    2.6980 H   0  0  0  0  0  0  0  0  0  0  0  0
    9.6874   -5.1803    1.8222 H   0  0  0  0  0  0  0  0  0  0  0  0
   12.3146   -2.6376   -0.0100 H   0  0  0  0  0  0  0  0  0  0  0  0
   12.4627   -0.2350    0.6655 H   0  0  0  0  0  0  0  0  0  0  0  0
   11.5152    1.6932    1.7940 H   0  0  0  0  0  0  0  0  0  0  0  0
   10.8020    3.2674    3.1462 H   0  0  0  0  0  0  0  0  0  0  0  0
   10.7465    2.2360    4.5891 H   0  0  0  0  0  0  0  0  0  0  0  0
    9.6324    3.5856    4.4343 H   0  0  0  0  0  0  0  0  0  0  0  0
    8.8391    3.0614    1.3867 H   0  0  0  0  0  0  0  0  0  0  0  0
    7.7469    3.4949    2.7204 H   0  0  0  0  0  0  0  0  0  0  0  0
    7.4473    2.0391    1.7938 H   0  0  0  0  0  0  0  0  0  0  0  0
    8.7833    1.1424    4.9901 H   0  0  0  0  0  0  0  0  0  0  0  0
    8.1452   -0.6567    3.0229 H   0  0  0  0  0  0  0  0  0  0  0  0
    5.6404   -5.6500    5.5042 H   0  0  0  0  0  0  0  0  0  0  0  0
    5.2078   -2.3212    8.1907 H   0  0  0  0  0  0  0  0  0  0  0  0
    5.1472   -0.7678    6.2816 H   0  0  0  0  0  0  0  0  0  0  0  0
    5.9159   -0.5442    3.7518 H   0  0  0  0  0  0  0  0  0  0  0  0
    4.1748   -0.9309    3.8002 H   0  0  0  0  0  0  0  0  0  0  0  0
  1  2  1  0  0  0  0
  1 36  1  0  0  0  0
  1 37  1  0  0  0  0
  1 38  1  0  0  0  0
  2  3  1  0  0  0  0
  2  4  1  0  0  0  0
  2 39  1  0  0  0  0
  3 40  1  0  0  0  0
  3 41  1  0  0  0  0
  3 42  1  0  0  0  0
  4  5  1  0  0  0  0
  4 43  1  0  0  0  0
  4 44  1  0  0  0  0
  5  6  2  0  0  0  0
  5  7  2  0  0  0  0
  5  8  1  0  0  0  0
  8  9  1  0  0  0  0
  8 35  1  0  0  0  0
  9 10  1  0  0  0  0
  9 45  1  0  0  0  0
  9 46  1  0  0  0  0
 10 11  1  0  0  0  0
 10 28  1  0  0  0  0
 10 47  1  0  0  0  0
 11 12  2  0  0  0  0
 11 13  1  0  0  0  0
 13 14  1  0  0  0  0
 13 48  1  0  0  0  0
 14 15  1  0  0  0  0
 14 27  2  0  0  0  0
 15 16  2  0  0  0  0
 15 49  1  0  0  0  0
 16 17  1  0  0  0  0
 17 18  2  0  0  0  0
 17 50  1  0  0  0  0
 18 19  1  0  0  0  0
 18 27  1  0  0  0  0
 19 20  2  0  0  0  0
 19 51  1  0  0  0  0
 20 21  1  0  0  0  0
 20 52  1  0  0  0  0
 21 22  1  0  0  0  0
 21 26  2  0  0  0  0
 22 23  1  0  0  0  0
 22 24  1  0  0  0  0
 22 25  1  0  0  0  0
 23 53  1  0  0  0  0
 23 54  1  0  0  0  0
 23 55  1  0  0  0  0
 24 56  1  0  0  0  0
 24 57  1  0  0  0  0
 24 58  1  0  0  0  0
 25 59  1  0  0  0  0
 26 27  1  0  0  0  0
 26 60  1  0  0  0  0
 28 29  1  0  0  0  0
 28 34  2  0  0  0  0
 29 30  2  0  0  0  0
 29 61  1  0  0  0  0
 30 31  1  0  0  0  0
 30 32  1  0  0  0  0
 32 33  2  0  0  0  0
 32 62  1  0  0  0  0
 33 34  1  0  0  0  0
 33 63  1  0  0  0  0
 34 35  1  0  0  0  0
 35 64  1  0  0  0  0
 35 65  1  0  0  0  0
M  END
$$$$
