
 OpenBabel07202414203D

 34 36  0  0  0  0  0  0  0  0999 V2000
    4.3108   -1.0102   -1.0117 C   0  0  0  0  0  0  0  0  0  0  0  0
    4.4662    0.3683   -1.0666 C   0  0  0  0  0  0  0  0  0  0  0  0
    3.3968    1.2129   -0.7325 C   0  0  0  0  0  0  0  0  0  0  0  0
    2.1321    0.7026   -0.3357 C   0  0  0  0  0  0  0  0  0  0  0  0
    2.0087   -0.7108   -0.2932 C   0  0  0  0  0  0  0  0  0  0  0  0
    3.0888   -1.5477   -0.6251 C   0  0  0  0  0  0  0  0  0  0  0  0
    0.7890   -1.2619    0.0919 C   0  0  0  0  0  0  0  0  0  0  0  0
   -0.3031   -0.5473    0.4165 N   0  0  0  0  0  0  0  0  0  0  0  0
   -0.1728    0.7987    0.3806 C   0  0  0  0  0  0  0  0  0  0  0  0
    0.9962    1.4849    0.0330 C   0  0  0  0  0  0  0  0  0  0  0  0
    1.0547    2.9090    0.0232 N   0  0  0  0  0  0  0  0  0  0  0  0
    0.1230    3.7627    0.5959 C   0  0  0  0  0  0  0  0  0  0  0  0
   -0.8357    3.4223    1.2841 O   0  0  0  0  0  0  0  0  0  0  0  0
    0.3868    5.2362    0.3322 C   0  0  0  0  0  0  0  0  0  0  0  0
    1.2815    5.8857    1.3604 C   0  0  0  0  0  0  0  0  0  0  0  0
    0.9514    5.8588    2.7236 C   0  0  0  0  0  0  0  0  0  0  0  0
    1.7645    6.4960    3.6664 C   0  0  0  0  0  0  0  0  0  0  0  0
    2.9140    7.1765    3.2599 C   0  0  0  0  0  0  0  0  0  0  0  0
    3.2478    7.2206    1.9031 C   0  0  0  0  0  0  0  0  0  0  0  0
    2.4327    6.5802    0.9605 C   0  0  0  0  0  0  0  0  0  0  0  0
    4.6456    8.0502    1.3176 Cl  0  0  0  0  0  0  0  0  0  0  0  0
    3.8702    7.9455    4.4758 Cl  0  0  0  0  0  0  0  0  0  0  0  0
    5.1386   -1.6672   -1.2662 H   0  0  0  0  0  0  0  0  0  0  0  0
    5.4217    0.7915   -1.3649 H   0  0  0  0  0  0  0  0  0  0  0  0
    3.5828    2.2808   -0.7849 H   0  0  0  0  0  0  0  0  0  0  0  0
    2.9804   -2.6306   -0.5828 H   0  0  0  0  0  0  0  0  0  0  0  0
    0.6483   -2.3386    0.1511 H   0  0  0  0  0  0  0  0  0  0  0  0
   -1.0964    1.3117    0.6246 H   0  0  0  0  0  0  0  0  0  0  0  0
    1.8951    3.3320   -0.3443 H   0  0  0  0  0  0  0  0  0  0  0  0
   -0.5794    5.7580    0.3226 H   0  0  0  0  0  0  0  0  0  0  0  0
    0.8000    5.3496   -0.6770 H   0  0  0  0  0  0  0  0  0  0  0  0
    0.0514    5.3462    3.0652 H   0  0  0  0  0  0  0  0  0  0  0  0
    1.4889    6.4608    4.7184 H   0  0  0  0  0  0  0  0  0  0  0  0
    2.6953    6.6386   -0.0943 H   0  0  0  0  0  0  0  0  0  0  0  0
  1  2  1  0  0  0  0
  1  6  2  0  0  0  0
  1 23  1  0  0  0  0
  2  3  2  0  0  0  0
  2 24  1  0  0  0  0
  3  4  1  0  0  0  0
  3 25  1  0  0  0  0
  4  5  1  0  0  0  0
  4 10  2  0  0  0  0
  5  6  1  0  0  0  0
  5  7  2  0  0  0  0
  6 26  1  0  0  0  0
  7  8  1  0  0  0  0
  7 27  1  0  0  0  0
  8  9  2  0  0  0  0
  9 10  1  0  0  0  0
  9 28  1  0  0  0  0
 10 11  1  0  0  0  0
 11 12  1  0  0  0  0
 11 29  1  0  0  0  0
 12 13  2  0  0  0  0
 12 14  1  0  0  0  0
 14 15  1  0  0  0  0
 14 30  1  0  0  0  0
 14 31  1  0  0  0  0
 15 16  1  0  0  0  0
 15 20  2  0  0  0  0
 16 17  2  0  0  0  0
 16 32  1  0  0  0  0
 17 18  1  0  0  0  0
 17 33  1  0  0  0  0
 18 19  2  0  0  0  0
 18 22  1  0  0  0  0
 19 20  1  0  0  0  0
 19 21  1  0  0  0  0
 20 34  1  0  0  0  0
M  END
$$$$
