
 OpenBabel07202414163D

 47 51  0  0  0  0  0  0  0  0999 V2000
   -2.1219   -0.2509    0.0671 Cl  0  0  0  0  0  0  0  0  0  0  0  0
   -0.4054   -0.1267    0.0290 C   0  0  0  0  0  0  0  0  0  0  0  0
    0.1907    1.1347    0.0094 C   0  0  0  0  0  0  0  0  0  0  0  0
    1.5807    1.2429   -0.0277 C   0  0  0  0  0  0  0  0  0  0  0  0
    2.2637    2.5929   -0.1127 C   0  0  0  0  0  0  0  0  0  0  0  0
    3.0694    2.7794   -1.3922 C   0  0  0  0  0  0  0  0  0  0  0  0
    3.4143    1.8419   -2.1066 O   0  0  0  0  0  0  0  0  0  0  0  0
    3.4358    4.0948   -1.6228 N   0  0  0  0  0  0  0  0  0  0  0  0
    4.1933    4.4660   -2.7608 C   0  0  0  0  0  0  0  0  0  0  0  0
    3.9147    3.9117   -4.0164 C   0  0  0  0  0  0  0  0  0  0  0  0
    4.5650    4.2332   -5.1559 N   0  0  0  0  0  0  0  0  0  0  0  0
    5.5675    5.1268   -5.0344 C   0  0  0  0  0  0  0  0  0  0  0  0
    5.9577    5.7317   -3.8382 C   0  0  0  0  0  0  0  0  0  0  0  0
    7.0456    6.6201   -3.7894 C   0  0  0  0  0  0  0  0  0  0  0  0
    7.4536    7.1766   -2.5776 C   0  0  0  0  0  0  0  0  0  0  0  0
    6.7733    6.8612   -1.4073 C   0  0  0  0  0  0  0  0  0  0  0  0
    5.6807    5.9922   -1.4469 C   0  0  0  0  0  0  0  0  0  0  0  0
    5.2438    5.4087   -2.6606 C   0  0  0  0  0  0  0  0  0  0  0  0
    2.3513    0.0693   -0.0023 C   0  0  0  0  0  0  0  0  0  0  0  0
    1.7605   -1.1990    0.0725 C   0  0  0  0  0  0  0  0  0  0  0  0
    2.5262   -2.3757    0.1693 N   0  0  0  0  0  0  0  0  0  0  0  0
    3.7712   -2.5327    0.7915 C   0  0  0  0  0  0  0  0  0  0  0  0
    4.1668   -1.8420    1.9267 C   0  0  0  0  0  0  0  0  0  0  0  0
    3.5747   -0.9105    2.7350 N   0  0  0  0  0  0  0  0  0  0  0  0
    4.4778   -0.5582    3.6957 C   0  0  0  0  0  0  0  0  0  0  0  0
    5.5993   -1.2353    3.5725 N   0  0  0  0  0  0  0  0  0  0  0  0
    5.4132   -2.0443    2.4858 C   0  0  0  0  0  0  0  0  0  0  0  0
    6.3033   -2.9240    2.0050 N   0  0  0  0  0  0  0  0  0  0  0  0
    5.8275   -3.5746    0.9379 C   0  0  0  0  0  0  0  0  0  0  0  0
    6.8681   -4.7642    0.2786 Cl  0  0  0  0  0  0  0  0  0  0  0  0
    4.6380   -3.4439    0.3123 N   0  0  0  0  0  0  0  0  0  0  0  0
    0.3689   -1.2877    0.0414 C   0  0  0  0  0  0  0  0  0  0  0  0
   -0.4340    2.0248    0.0041 H   0  0  0  0  0  0  0  0  0  0  0  0
    2.9381    2.7073    0.7459 H   0  0  0  0  0  0  0  0  0  0  0  0
    1.5184    3.3952   -0.0485 H   0  0  0  0  0  0  0  0  0  0  0  0
    3.4394    4.7239   -0.8315 H   0  0  0  0  0  0  0  0  0  0  0  0
    3.1121    3.1926   -4.1533 H   0  0  0  0  0  0  0  0  0  0  0  0
    6.0854    5.3388   -5.9687 H   0  0  0  0  0  0  0  0  0  0  0  0
    7.6018    6.8596   -4.6902 H   0  0  0  0  0  0  0  0  0  0  0  0
    8.3107    7.8444   -2.5468 H   0  0  0  0  0  0  0  0  0  0  0  0
    7.1026    7.2757   -0.4583 H   0  0  0  0  0  0  0  0  0  0  0  0
    5.2057    5.7498   -0.5019 H   0  0  0  0  0  0  0  0  0  0  0  0
    3.4373    0.1492   -0.0737 H   0  0  0  0  0  0  0  0  0  0  0  0
    2.4837   -2.9567   -0.6661 H   0  0  0  0  0  0  0  0  0  0  0  0
    2.6403   -0.5391    2.6201 H   0  0  0  0  0  0  0  0  0  0  0  0
    4.2604    0.1864    4.4506 H   0  0  0  0  0  0  0  0  0  0  0  0
   -0.1126   -2.2619    0.0684 H   0  0  0  0  0  0  0  0  0  0  0  0
  1  2  1  0  0  0  0
  2  3  2  0  0  0  0
  2 32  1  0  0  0  0
  3  4  1  0  0  0  0
  3 33  1  0  0  0  0
  4  5  1  0  0  0  0
  4 19  2  0  0  0  0
  5  6  1  0  0  0  0
  5 34  1  0  0  0  0
  5 35  1  0  0  0  0
  6  7  2  0  0  0  0
  6  8  1  0  0  0  0
  8  9  1  0  0  0  0
  8 36  1  0  0  0  0
  9 10  2  0  0  0  0
  9 18  1  0  0  0  0
 10 11  1  0  0  0  0
 10 37  1  0  0  0  0
 11 12  2  0  0  0  0
 12 13  1  0  0  0  0
 12 38  1  0  0  0  0
 13 14  2  0  0  0  0
 13 18  1  0  0  0  0
 14 15  1  0  0  0  0
 14 39  1  0  0  0  0
 15 16  2  0  0  0  0
 15 40  1  0  0  0  0
 16 17  1  0  0  0  0
 16 41  1  0  0  0  0
 17 18  2  0  0  0  0
 17 42  1  0  0  0  0
 19 20  1  0  0  0  0
 19 43  1  0  0  0  0
 20 21  1  0  0  0  0
 20 32  2  0  0  0  0
 21 22  1  0  0  0  0
 21 44  1  0  0  0  0
 22 23  2  0  0  0  0
 22 31  1  0  0  0  0
 23 24  1  0  0  0  0
 23 27  1  0  0  0  0
 24 25  1  0  0  0  0
 24 45  1  0  0  0  0
 25 26  2  0  0  0  0
 25 46  1  0  0  0  0
 26 27  1  0  0  0  0
 27 28  2  0  0  0  0
 28 29  1  0  0  0  0
 29 30  1  0  0  0  0
 29 31  2  0  0  0  0
 32 47  1  0  0  0  0
M  END
$$$$
