
 OpenBabel07202414173D

 63 67  0  0  1  0  0  0  0  0999 V2000
    8.1771   -0.2986   -4.2172 Cl  0  0  0  0  0  0  0  0  0  0  0  0
    6.5221   -0.7688   -4.2936 C   0  0  0  0  0  0  0  0  0  0  0  0
    5.6621   -0.1005   -5.1602 C   0  0  0  0  0  0  0  0  0  0  0  0
    4.3340   -0.5062   -5.2490 C   0  0  0  0  0  0  0  0  0  0  0  0
    3.8765   -1.5786   -4.4841 C   0  0  0  0  0  0  0  0  0  0  0  0
    4.7205   -2.2453   -3.5743 C   0  0  0  0  0  0  0  0  0  0  0  0
    6.0652   -1.8334   -3.5063 C   0  0  0  0  0  0  0  0  0  0  0  0
    4.2046   -3.4804   -2.8366 C   0  0  1  0  0  0  0  0  0  0  0  0
    4.8218   -3.8287   -1.4530 C   0  0  0  0  0  0  0  0  0  0  0  0
    5.2828   -2.9067   -0.7759 O   0  0  0  0  0  0  0  0  0  0  0  0
    4.8073   -5.1540   -0.9273 N   0  0  0  0  0  0  0  0  0  0  0  0
    5.1752   -5.3601    0.5040 C   0  0  0  0  0  0  0  0  0  0  0  0
    6.6223   -5.1869    0.9431 C   0  0  0  0  0  0  0  0  0  0  0  0
    7.4405   -6.2547    1.0741 C   0  0  0  0  0  0  0  0  0  0  0  0
    7.1133   -3.9728    1.6946 C   0  0  0  0  0  0  0  0  0  0  0  0
    8.0373   -4.0330    2.5116 O   0  0  0  0  0  0  0  0  0  0  0  0
    6.4770   -2.7930    1.4343 N   0  0  0  0  0  0  0  0  0  0  0  0
    6.9553   -1.5258    1.9396 C   0  0  0  0  0  0  0  0  0  0  0  0
    6.1279   -0.3848    1.4025 C   0  0  0  0  0  0  0  0  0  0  0  0
    4.9587    0.0177    2.0647 C   0  0  0  0  0  0  0  0  0  0  0  0
    4.1573    1.0314    1.5352 C   0  0  0  0  0  0  0  0  0  0  0  0
    4.5092    1.6449    0.3346 C   0  0  0  0  0  0  0  0  0  0  0  0
    5.6653    1.2471   -0.3365 C   0  0  0  0  0  0  0  0  0  0  0  0
    6.4693    0.2371    0.1915 C   0  0  0  0  0  0  0  0  0  0  0  0
    3.9995   -6.1795   -1.5786 C   0  0  0  0  0  0  0  0  0  0  0  0
    4.2817   -6.4586   -2.9193 C   0  0  0  0  0  0  0  0  0  0  0  0
    3.4418   -7.0529   -3.7889 N   0  0  0  0  0  0  0  0  0  0  0  0
    2.2953   -7.5260   -3.2727 C   0  0  0  0  0  0  0  0  0  0  0  0
    1.9878   -7.5272   -1.9164 C   0  0  0  0  0  0  0  0  0  0  0  0
    0.8314   -8.2028   -1.4850 C   0  0  0  0  0  0  0  0  0  0  0  0
    0.5168   -8.2879   -0.1362 C   0  0  0  0  0  0  0  0  0  0  0  0
    1.3279   -7.6492    0.7852 C   0  0  0  0  0  0  0  0  0  0  0  0
    2.4437   -6.9144    0.3555 C   0  0  0  0  0  0  0  0  0  0  0  0
    2.8523   -6.8500   -1.0108 C   0  0  0  0  0  0  0  0  0  0  0  0
    2.6821   -3.3592   -2.7497 C   0  0  0  0  0  0  0  0  0  0  0  0
    2.1687   -3.1746   -4.1686 C   0  0  0  0  0  0  0  0  0  0  0  0
    2.5652   -1.9113   -4.6999 O   0  0  0  0  0  0  0  0  0  0  0  0
    6.0196    0.7197   -5.7765 H   0  0  0  0  0  0  0  0  0  0  0  0
    3.6564   -0.0028   -5.9376 H   0  0  0  0  0  0  0  0  0  0  0  0
    6.7684   -2.3412   -2.8510 H   0  0  0  0  0  0  0  0  0  0  0  0
    4.4773   -4.2554   -3.5455 H   0  0  0  0  0  0  0  0  0  0  0  0
    4.9766   -6.4147    0.7173 H   0  0  0  0  0  0  0  0  0  0  0  0
    4.5085   -4.7582    1.1318 H   0  0  0  0  0  0  0  0  0  0  0  0
    7.1463   -7.2549    0.7783 H   0  0  0  0  0  0  0  0  0  0  0  0
    8.4089   -6.1807    1.5699 H   0  0  0  0  0  0  0  0  0  0  0  0
    5.9090   -2.7386    0.5895 H   0  0  0  0  0  0  0  0  0  0  0  0
    8.0081   -1.4069    1.6555 H   0  0  0  0  0  0  0  0  0  0  0  0
    6.9210   -1.5564    3.0342 H   0  0  0  0  0  0  0  0  0  0  0  0
    4.6629   -0.4672    2.9911 H   0  0  0  0  0  0  0  0  0  0  0  0
    3.2537    1.3360    2.0566 H   0  0  0  0  0  0  0  0  0  0  0  0
    3.8807    2.4278   -0.0815 H   0  0  0  0  0  0  0  0  0  0  0  0
    5.9343    1.7177   -1.2784 H   0  0  0  0  0  0  0  0  0  0  0  0
    7.3548   -0.0810   -0.3557 H   0  0  0  0  0  0  0  0  0  0  0  0
    5.2204   -6.1417   -3.3701 H   0  0  0  0  0  0  0  0  0  0  0  0
    1.6141   -7.9487   -4.0086 H   0  0  0  0  0  0  0  0  0  0  0  0
    0.1809   -8.7025   -2.2016 H   0  0  0  0  0  0  0  0  0  0  0  0
   -0.3522   -8.8532    0.1909 H   0  0  0  0  0  0  0  0  0  0  0  0
    1.1004   -7.7215    1.8469 H   0  0  0  0  0  0  0  0  0  0  0  0
    3.0032   -6.4343    1.1477 H   0  0  0  0  0  0  0  0  0  0  0  0
    2.4062   -2.4873   -2.1409 H   0  0  0  0  0  0  0  0  0  0  0  0
    2.2154   -4.2328   -2.2926 H   0  0  0  0  0  0  0  0  0  0  0  0
    1.0764   -3.2048   -4.1833 H   0  0  0  0  0  0  0  0  0  0  0  0
    2.5164   -3.9710   -4.8375 H   0  0  0  0  0  0  0  0  0  0  0  0
  1  2  1  0  0  0  0
  2  3  1  0  0  0  0
  2  7  2  0  0  0  0
  3  4  2  0  0  0  0
  3 38  1  0  0  0  0
  4  5  1  0  0  0  0
  4 39  1  0  0  0  0
  5  6  2  0  0  0  0
  5 37  1  0  0  0  0
  6  7  1  0  0  0  0
  6  8  1  0  0  0  0
  7 40  1  0  0  0  0
  8 35  1  0  0  0  0
  8  9  1  0  0  0  0
  8 41  1  6  0  0  0
  9 10  2  0  0  0  0
  9 11  1  0  0  0  0
 11 12  1  0  0  0  0
 11 25  1  0  0  0  0
 12 13  1  0  0  0  0
 12 42  1  0  0  0  0
 12 43  1  0  0  0  0
 13 14  2  0  0  0  0
 13 15  1  0  0  0  0
 14 44  1  0  0  0  0
 14 45  1  0  0  0  0
 15 16  2  0  0  0  0
 15 17  1  0  0  0  0
 17 18  1  0  0  0  0
 17 46  1  0  0  0  0
 18 19  1  0  0  0  0
 18 47  1  0  0  0  0
 18 48  1  0  0  0  0
 19 20  1  0  0  0  0
 19 24  2  0  0  0  0
 20 21  2  0  0  0  0
 20 49  1  0  0  0  0
 21 22  1  0  0  0  0
 21 50  1  0  0  0  0
 22 23  2  0  0  0  0
 22 51  1  0  0  0  0
 23 24  1  0  0  0  0
 23 52  1  0  0  0  0
 24 53  1  0  0  0  0
 25 26  1  0  0  0  0
 25 34  2  0  0  0  0
 26 27  2  0  0  0  0
 26 54  1  0  0  0  0
 27 28  1  0  0  0  0
 28 29  2  0  0  0  0
 28 55  1  0  0  0  0
 29 30  1  0  0  0  0
 29 34  1  0  0  0  0
 30 31  2  0  0  0  0
 30 56  1  0  0  0  0
 31 32  1  0  0  0  0
 31 57  1  0  0  0  0
 32 33  2  0  0  0  0
 32 58  1  0  0  0  0
 33 34  1  0  0  0  0
 33 59  1  0  0  0  0
 35 36  1  0  0  0  0
 35 60  1  0  0  0  0
 35 61  1  0  0  0  0
 36 37  1  0  0  0  0
 36 62  1  0  0  0  0
 36 63  1  0  0  0  0
M  END
$$$$
