
 OpenBabel07202414123D

 46 47  0  0  1  0  0  0  0  0999 V2000
    2.4755    1.3602   -3.5984 C   0  0  0  0  0  0  0  0  0  0  0  0
    1.9955    1.0733   -2.1772 C   0  0  0  0  0  0  0  0  0  0  0  0
    0.6663    0.2969   -2.2550 C   0  0  0  0  0  0  0  0  0  0  0  0
    2.9876    0.2546   -1.3303 C   0  0  0  0  0  0  0  0  0  0  0  0
    4.4842    0.6571   -1.2547 C   0  0  2  0  0  0  0  0  0  0  0  0
    5.2004   -0.4539   -0.4240 C   0  0  0  0  0  0  0  0  0  0  0  0
    6.6541   -0.3109   -0.4516 N   0  0  0  0  0  0  0  0  0  0  0  0
    7.1339    1.0292   -0.1207 C   0  0  0  0  0  0  0  0  0  0  0  0
    6.3769    2.1198   -0.9107 C   0  0  0  0  0  0  0  0  0  0  0  0
    4.8856    2.0339   -0.8606 N   0  0  0  0  0  0  0  0  0  0  0  0
    4.3729    2.5682    0.4164 C   0  0  0  0  0  0  0  0  0  0  0  0
    4.5729    4.0846    0.5145 C   0  0  0  0  0  0  0  0  0  0  0  0
    4.1480    4.9095   -0.5401 C   0  0  0  0  0  0  0  0  0  0  0  0
    4.3791    6.2881   -0.5286 C   0  0  0  0  0  0  0  0  0  0  0  0
    5.0251    6.8719    0.5584 C   0  0  0  0  0  0  0  0  0  0  0  0
    5.4187    6.0816    1.6329 C   0  0  0  0  0  0  0  0  0  0  0  0
    5.2047    4.6951    1.6147 C   0  0  0  0  0  0  0  0  0  0  0  0
    6.2151    6.8157    2.9696 Cl  0  0  0  0  0  0  0  0  0  0  0  0
    7.5642   -1.3649   -0.5579 C   0  0  0  0  0  0  0  0  0  0  0  0
    8.7768   -1.1657   -0.4782 O   0  0  0  0  0  0  0  0  0  0  0  0
    6.9737   -2.7543   -0.7821 C   0  0  0  0  0  0  0  0  0  0  0  0
    8.2280   -4.0008   -0.9439 Cl  0  0  0  0  0  0  0  0  0  0  0  0
    1.6793    1.8390   -4.1823 H   0  0  0  0  0  0  0  0  0  0  0  0
    2.7599    0.4409   -4.1214 H   0  0  0  0  0  0  0  0  0  0  0  0
    3.3310    2.0405   -3.5974 H   0  0  0  0  0  0  0  0  0  0  0  0
    1.8027    2.0286   -1.6768 H   0  0  0  0  0  0  0  0  0  0  0  0
    0.8148   -0.7057   -2.6769 H   0  0  0  0  0  0  0  0  0  0  0  0
   -0.0642    0.8124   -2.8870 H   0  0  0  0  0  0  0  0  0  0  0  0
    0.2235    0.1763   -1.2605 H   0  0  0  0  0  0  0  0  0  0  0  0
    2.9763   -0.7637   -1.7524 H   0  0  0  0  0  0  0  0  0  0  0  0
    2.5836    0.1512   -0.3155 H   0  0  0  0  0  0  0  0  0  0  0  0
    4.8537    0.5477   -2.2832 H   0  0  0  0  0  0  0  0  0  0  0  0
    4.9106   -1.4330   -0.8125 H   0  0  0  0  0  0  0  0  0  0  0  0
    4.8877   -0.4194    0.6262 H   0  0  0  0  0  0  0  0  0  0  0  0
    8.2074    1.1177   -0.3145 H   0  0  0  0  0  0  0  0  0  0  0  0
    6.9893    1.1621    0.9583 H   0  0  0  0  0  0  0  0  0  0  0  0
    6.6700    2.0428   -1.9655 H   0  0  0  0  0  0  0  0  0  0  0  0
    6.7349    3.1038   -0.5879 H   0  0  0  0  0  0  0  0  0  0  0  0
    4.8372    2.0721    1.2764 H   0  0  0  0  0  0  0  0  0  0  0  0
    3.2927    2.3958    0.4990 H   0  0  0  0  0  0  0  0  0  0  0  0
    3.6604    4.4591   -1.4119 H   0  0  0  0  0  0  0  0  0  0  0  0
    4.0664    6.8973   -1.3750 H   0  0  0  0  0  0  0  0  0  0  0  0
    5.2127    7.9423    0.5540 H   0  0  0  0  0  0  0  0  0  0  0  0
    5.5505    4.0960    2.4532 H   0  0  0  0  0  0  0  0  0  0  0  0
    6.3901   -2.7676   -1.7062 H   0  0  0  0  0  0  0  0  0  0  0  0
    6.3471   -3.0306    0.0706 H   0  0  0  0  0  0  0  0  0  0  0  0
  1  2  1  0  0  0  0
  1 23  1  0  0  0  0
  1 24  1  0  0  0  0
  1 25  1  0  0  0  0
  2  3  1  0  0  0  0
  2  4  1  0  0  0  0
  2 26  1  0  0  0  0
  3 27  1  0  0  0  0
  3 28  1  0  0  0  0
  3 29  1  0  0  0  0
  4  5  1  0  0  0  0
  4 30  1  0  0  0  0
  4 31  1  0  0  0  0
  5  6  1  0  0  0  0
  5 10  1  0  0  0  0
  5 32  1  6  0  0  0
  6  7  1  0  0  0  0
  6 33  1  0  0  0  0
  6 34  1  0  0  0  0
  7  8  1  0  0  0  0
  7 19  1  0  0  0  0
  8  9  1  0  0  0  0
  8 35  1  0  0  0  0
  8 36  1  0  0  0  0
  9 10  1  0  0  0  0
  9 37  1  0  0  0  0
  9 38  1  0  0  0  0
 10 11  1  0  0  0  0
 11 12  1  0  0  0  0
 11 39  1  0  0  0  0
 11 40  1  0  0  0  0
 12 13  1  0  0  0  0
 12 17  2  0  0  0  0
 13 14  2  0  0  0  0
 13 41  1  0  0  0  0
 14 15  1  0  0  0  0
 14 42  1  0  0  0  0
 15 16  2  0  0  0  0
 15 43  1  0  0  0  0
 16 17  1  0  0  0  0
 16 18  1  0  0  0  0
 17 44  1  0  0  0  0
 19 20  2  0  0  0  0
 19 21  1  0  0  0  0
 21 22  1  0  0  0  0
 21 45  1  0  0  0  0
 21 46  1  0  0  0  0
M  END
$$$$
