
 OpenBabel07202414123D

 62 64  0  0  1  0  0  0  0  0999 V2000
    3.5583    3.2849    1.5025 C   0  0  0  0  0  0  0  0  0  0  0  0
    2.6931    2.0828    1.8965 C   0  0  0  0  0  0  0  0  0  0  0  0
    1.2389    2.3502    1.5011 C   0  0  0  0  0  0  0  0  0  0  0  0
    3.1799    0.7614    1.2612 C   0  0  0  0  0  0  0  0  0  0  0  0
    4.6673    0.4439    1.5033 C   0  0  2  0  0  0  0  0  0  0  0  0
    5.1303   -0.8091    0.7140 C   0  0  0  0  0  0  0  0  0  0  0  0
    6.5923   -0.9403    0.7882 N   0  0  0  0  0  0  0  0  0  0  0  0
    7.4169   -1.2979   -0.2696 C   0  0  0  0  0  0  0  0  0  0  0  0
    8.6420   -1.3715   -0.1411 O   0  0  0  0  0  0  0  0  0  0  0  0
    6.7801   -1.6154   -1.6212 C   0  0  0  0  0  0  0  0  0  0  0  0
    6.4898   -0.4390   -2.3463 O   0  0  0  0  0  0  0  0  0  0  0  0
    5.8720   -0.6502   -3.8328 S   0  0  0  0  0  0  0  0  0  0  0  0
    6.7904   -1.4734   -4.5843 O   0  0  0  0  0  0  0  0  0  0  0  0
    4.4889   -1.0415   -3.6655 O   0  0  0  0  0  0  0  0  0  0  0  0
    5.8975    0.9021   -4.5126 N   0  0  0  0  0  0  0  0  0  0  0  0
    7.2261    1.5357   -4.6594 C   0  0  0  0  0  0  0  0  0  0  0  0
    7.3026    2.4838   -3.4781 C   0  0  0  0  0  0  0  0  0  0  0  0
    5.8852    3.0172   -3.3666 C   0  0  0  0  0  0  0  0  0  0  0  0
    4.9888    1.9061   -3.9084 C   0  0  0  0  0  0  0  0  0  0  0  0
    7.1783   -0.8021    2.1322 C   0  0  0  0  0  0  0  0  0  0  0  0
    6.5718    0.3652    2.9412 C   0  0  0  0  0  0  0  0  0  0  0  0
    5.0889    0.4205    2.9371 N   0  0  0  0  0  0  0  0  0  0  0  0
    4.4886   -0.6909    3.7017 C   0  0  0  0  0  0  0  0  0  0  0  0
    4.8123   -0.6855    5.1838 C   0  0  0  0  0  0  0  0  0  0  0  0
    5.4729   -1.7784    5.7754 C   0  0  0  0  0  0  0  0  0  0  0  0
    5.7121   -1.8170    7.1519 C   0  0  0  0  0  0  0  0  0  0  0  0
    5.2974   -0.7602    7.9596 C   0  0  0  0  0  0  0  0  0  0  0  0
    4.6581    0.3370    7.3837 C   0  0  0  0  0  0  0  0  0  0  0  0
    4.1490    1.6422    8.3822 Cl  0  0  0  0  0  0  0  0  0  0  0  0
    4.4209    0.3835    6.0076 C   0  0  0  0  0  0  0  0  0  0  0  0
    3.0926    4.2261    1.8129 H   0  0  0  0  0  0  0  0  0  0  0  0
    3.7150    3.3260    0.4188 H   0  0  0  0  0  0  0  0  0  0  0  0
    4.5394    3.2402    1.9866 H   0  0  0  0  0  0  0  0  0  0  0  0
    2.7263    1.9832    2.9885 H   0  0  0  0  0  0  0  0  0  0  0  0
    1.1399    2.4952    0.4197 H   0  0  0  0  0  0  0  0  0  0  0  0
    0.8653    3.2533    1.9964 H   0  0  0  0  0  0  0  0  0  0  0  0
    0.5939    1.5168    1.7959 H   0  0  0  0  0  0  0  0  0  0  0  0
    3.0212    0.8264    0.1730 H   0  0  0  0  0  0  0  0  0  0  0  0
    2.5479   -0.0677    1.6013 H   0  0  0  0  0  0  0  0  0  0  0  0
    5.2096    1.2797    1.0385 H   0  0  0  0  0  0  0  0  0  0  0  0
    4.8034   -0.7250   -0.3245 H   0  0  0  0  0  0  0  0  0  0  0  0
    4.6919   -1.7316    1.1122 H   0  0  0  0  0  0  0  0  0  0  0  0
    5.8775   -2.2182   -1.4777 H   0  0  0  0  0  0  0  0  0  0  0  0
    7.4956   -2.2328   -2.1768 H   0  0  0  0  0  0  0  0  0  0  0  0
    7.2421    2.0885   -5.6071 H   0  0  0  0  0  0  0  0  0  0  0  0
    8.0539    0.8230   -4.6778 H   0  0  0  0  0  0  0  0  0  0  0  0
    8.0415    3.2767   -3.6210 H   0  0  0  0  0  0  0  0  0  0  0  0
    7.5692    1.9360   -2.5673 H   0  0  0  0  0  0  0  0  0  0  0  0
    5.7676    3.9247   -3.9694 H   0  0  0  0  0  0  0  0  0  0  0  0
    5.6279    3.2718   -2.3335 H   0  0  0  0  0  0  0  0  0  0  0  0
    4.3277    2.2958   -4.6921 H   0  0  0  0  0  0  0  0  0  0  0  0
    4.3571    1.4888   -3.1212 H   0  0  0  0  0  0  0  0  0  0  0  0
    8.2621   -0.6616    2.0687 H   0  0  0  0  0  0  0  0  0  0  0  0
    7.0084   -1.7515    2.6531 H   0  0  0  0  0  0  0  0  0  0  0  0
    6.9351    1.3076    2.5074 H   0  0  0  0  0  0  0  0  0  0  0  0
    6.9648    0.3603    3.9639 H   0  0  0  0  0  0  0  0  0  0  0  0
    4.7707   -1.6657    3.2894 H   0  0  0  0  0  0  0  0  0  0  0  0
    3.3952   -0.6431    3.6358 H   0  0  0  0  0  0  0  0  0  0  0  0
    5.8028   -2.6179    5.1665 H   0  0  0  0  0  0  0  0  0  0  0  0
    6.2148   -2.6738    7.5968 H   0  0  0  0  0  0  0  0  0  0  0  0
    5.4675   -0.7993    9.0327 H   0  0  0  0  0  0  0  0  0  0  0  0
    3.9121    1.2375    5.5701 H   0  0  0  0  0  0  0  0  0  0  0  0
  1  2  1  0  0  0  0
  1 31  1  0  0  0  0
  1 32  1  0  0  0  0
  1 33  1  0  0  0  0
  2  3  1  0  0  0  0
  2  4  1  0  0  0  0
  2 34  1  0  0  0  0
  3 35  1  0  0  0  0
  3 36  1  0  0  0  0
  3 37  1  0  0  0  0
  4  5  1  0  0  0  0
  4 38  1  0  0  0  0
  4 39  1  0  0  0  0
  5  6  1  0  0  0  0
  5 22  1  0  0  0  0
  5 40  1  6  0  0  0
  6  7  1  0  0  0  0
  6 41  1  0  0  0  0
  6 42  1  0  0  0  0
  7  8  1  0  0  0  0
  7 20  1  0  0  0  0
  8  9  2  0  0  0  0
  8 10  1  0  0  0  0
 10 11  1  0  0  0  0
 10 43  1  0  0  0  0
 10 44  1  0  0  0  0
 11 12  1  0  0  0  0
 12 13  2  0  0  0  0
 12 14  2  0  0  0  0
 12 15  1  0  0  0  0
 15 16  1  0  0  0  0
 15 19  1  0  0  0  0
 16 17  1  0  0  0  0
 16 45  1  0  0  0  0
 16 46  1  0  0  0  0
 17 18  1  0  0  0  0
 17 47  1  0  0  0  0
 17 48  1  0  0  0  0
 18 19  1  0  0  0  0
 18 49  1  0  0  0  0
 18 50  1  0  0  0  0
 19 51  1  0  0  0  0
 19 52  1  0  0  0  0
 20 21  1  0  0  0  0
 20 53  1  0  0  0  0
 20 54  1  0  0  0  0
 21 22  1  0  0  0  0
 21 55  1  0  0  0  0
 21 56  1  0  0  0  0
 22 23  1  0  0  0  0
 23 24  1  0  0  0  0
 23 57  1  0  0  0  0
 23 58  1  0  0  0  0
 24 25  1  0  0  0  0
 24 30  2  0  0  0  0
 25 26  2  0  0  0  0
 25 59  1  0  0  0  0
 26 27  1  0  0  0  0
 26 60  1  0  0  0  0
 27 28  2  0  0  0  0
 27 61  1  0  0  0  0
 28 29  1  0  0  0  0
 28 30  1  0  0  0  0
 30 62  1  0  0  0  0
M  END
$$$$
