
 OpenBabel07202414143D

 53 57  0  0  1  0  0  0  0  0999 V2000
    7.6573   -0.0084   -1.6836 C   0  0  0  0  0  0  0  0  0  0  0  0
    6.5328   -0.7683   -1.2092 N   0  0  0  0  0  0  0  0  0  0  0  0
    5.8015   -0.3771   -0.1103 C   0  0  0  0  0  0  0  0  0  0  0  0
    6.0687    0.6188    0.5582 O   0  0  0  0  0  0  0  0  0  0  0  0
    4.5782   -1.2529    0.1809 C   0  0  0  0  0  0  0  0  0  0  0  0
    4.8972   -2.6326    0.5551 N   0  0  0  0  0  0  0  0  0  0  0  0
    5.3654   -2.8806    1.9070 C   0  0  0  0  0  0  0  0  0  0  0  0
    5.0775   -4.2972    2.4417 C   0  0  3  0  0  0  0  0  0  0  0  0
    6.0608   -4.5910    3.5828 C   0  0  0  0  0  0  0  0  0  0  0  0
    5.2274   -5.0709    4.7496 C   0  0  0  0  0  0  0  0  0  0  0  0
    3.8393   -4.9708    4.3814 N   0  0  0  0  0  0  0  0  0  0  0  0
    2.7992   -5.7211    5.0602 C   0  0  0  0  0  0  0  0  0  0  0  0
    1.6387   -6.0703    4.3481 C   0  0  0  0  0  0  0  0  0  0  0  0
    0.7296   -6.9977    4.7294 N   0  0  0  0  0  0  0  0  0  0  0  0
    1.0073   -7.6788    5.8538 C   0  0  0  0  0  0  0  0  0  0  0  0
    2.1097   -7.4385    6.6652 C   0  0  0  0  0  0  0  0  0  0  0  0
    2.3441   -8.2817    7.7709 C   0  0  0  0  0  0  0  0  0  0  0  0
    3.4235   -8.0669    8.6150 C   0  0  0  0  0  0  0  0  0  0  0  0
    4.1662   -6.9106    8.4609 C   0  0  0  0  0  0  0  0  0  0  0  0
    3.8711   -6.0212    7.4175 C   0  0  0  0  0  0  0  0  0  0  0  0
    4.3721   -4.3846    7.7207 Cl  0  0  0  0  0  0  0  0  0  0  0  0
    2.9658   -6.3489    6.3537 C   0  0  0  0  0  0  0  0  0  0  0  0
    3.6964   -4.3569    3.1245 C   0  0  0  0  0  0  0  0  0  0  0  0
    2.6599   -3.9976    2.5856 O   0  0  0  0  0  0  0  0  0  0  0  0
    5.1809   -5.3546    1.3440 C   0  0  0  0  0  0  0  0  0  0  0  0
    5.1654   -6.7307    1.6591 C   0  0  0  0  0  0  0  0  0  0  0  0
    5.2841   -7.6986    0.6612 C   0  0  0  0  0  0  0  0  0  0  0  0
    5.2573   -9.3639    1.0874 Cl  0  0  0  0  0  0  0  0  0  0  0  0
    5.4209   -7.3214   -0.6683 C   0  0  0  0  0  0  0  0  0  0  0  0
    5.4084   -5.9665   -1.0044 C   0  0  0  0  0  0  0  0  0  0  0  0
    5.2710   -4.9841   -0.0098 C   0  0  0  0  0  0  0  0  0  0  0  0
    5.1383   -3.5634   -0.4408 C   0  0  0  0  0  0  0  0  0  0  0  0
    5.2195   -3.2603   -1.6282 O   0  0  0  0  0  0  0  0  0  0  0  0
    8.0212   -0.4562   -2.6110 H   0  0  0  0  0  0  0  0  0  0  0  0
    8.4451   -0.0214   -0.9259 H   0  0  0  0  0  0  0  0  0  0  0  0
    7.3487    1.0253   -1.8647 H   0  0  0  0  0  0  0  0  0  0  0  0
    6.2325   -1.6066   -1.7105 H   0  0  0  0  0  0  0  0  0  0  0  0
    3.9459   -1.2599   -0.7146 H   0  0  0  0  0  0  0  0  0  0  0  0
    3.9956   -0.7974    0.9888 H   0  0  0  0  0  0  0  0  0  0  0  0
    4.9375   -2.1273    2.5792 H   0  0  0  0  0  0  0  0  0  0  0  0
    6.4506   -2.7066    1.8697 H   0  0  0  0  0  0  0  0  0  0  0  0
    6.6082   -3.6907    3.8924 H   0  0  0  0  0  0  0  0  0  0  0  0
    6.8352   -5.3235    3.3275 H   0  0  0  0  0  0  0  0  0  0  0  0
    5.4356   -4.3699    5.5509 H   0  0  0  0  0  0  0  0  0  0  0  0
    5.4950   -6.0890    5.0446 H   0  0  0  0  0  0  0  0  0  0  0  0
    1.4078   -5.6688    3.3659 H   0  0  0  0  0  0  0  0  0  0  0  0
    0.2797   -8.4531    6.0949 H   0  0  0  0  0  0  0  0  0  0  0  0
    1.6882   -9.1289    7.9718 H   0  0  0  0  0  0  0  0  0  0  0  0
    3.6271   -8.7448    9.4395 H   0  0  0  0  0  0  0  0  0  0  0  0
    4.9289   -6.6617    9.1936 H   0  0  0  0  0  0  0  0  0  0  0  0
    5.0492   -7.0659    2.6874 H   0  0  0  0  0  0  0  0  0  0  0  0
    5.5124   -8.0719   -1.4490 H   0  0  0  0  0  0  0  0  0  0  0  0
    5.4800   -5.6792   -2.0522 H   0  0  0  0  0  0  0  0  0  0  0  0
  1  2  1  0  0  0  0
  1 34  1  0  0  0  0
  1 35  1  0  0  0  0
  1 36  1  0  0  0  0
  2  3  1  0  0  0  0
  2 37  1  0  0  0  0
  3  4  2  0  0  0  0
  3  5  1  0  0  0  0
  5  6  1  0  0  0  0
  5 38  1  0  0  0  0
  5 39  1  0  0  0  0
  6  7  1  0  0  0  0
  6 32  1  0  0  0  0
  7  8  1  0  0  0  0
  7 40  1  0  0  0  0
  7 41  1  0  0  0  0
  8  9  1  0  0  0  0
  8 23  1  0  0  0  0
  8 25  1  0  0  0  0
  9 10  1  0  0  0  0
  9 42  1  0  0  0  0
  9 43  1  0  0  0  0
 10 11  1  0  0  0  0
 10 44  1  0  0  0  0
 10 45  1  0  0  0  0
 11 12  1  0  0  0  0
 11 23  1  0  0  0  0
 12 13  1  0  0  0  0
 12 22  2  0  0  0  0
 13 14  2  0  0  0  0
 13 46  1  0  0  0  0
 14 15  1  0  0  0  0
 15 16  2  0  0  0  0
 15 47  1  0  0  0  0
 16 17  1  0  0  0  0
 16 22  1  0  0  0  0
 17 18  2  0  0  0  0
 17 48  1  0  0  0  0
 18 19  1  0  0  0  0
 18 49  1  0  0  0  0
 19 20  2  0  0  0  0
 19 50  1  0  0  0  0
 20 21  1  0  0  0  0
 20 22  1  0  0  0  0
 23 24  2  0  0  0  0
 25 26  1  0  0  0  0
 25 31  2  0  0  0  0
 26 27  2  0  0  0  0
 26 51  1  0  0  0  0
 27 28  1  0  0  0  0
 27 29  1  0  0  0  0
 29 30  2  0  0  0  0
 29 52  1  0  0  0  0
 30 31  1  0  0  0  0
 30 53  1  0  0  0  0
 31 32  1  0  0  0  0
 32 33  2  0  0  0  0
M  END
$$$$
