
 OpenBabel07202414163D

 37 39  0  0  0  0  0  0  0  0999 V2000
    1.5002    2.6913   -4.1578 C   0  0  0  0  0  0  0  0  0  0  0  0
    0.8707    3.3602   -2.9702 C   0  0  0  0  0  0  0  0  0  0  0  0
    1.1191    4.7101   -2.6946 C   0  0  0  0  0  0  0  0  0  0  0  0
    0.5024    5.3290   -1.6074 C   0  0  0  0  0  0  0  0  0  0  0  0
   -0.3415    4.5918   -0.7833 C   0  0  0  0  0  0  0  0  0  0  0  0
   -0.9469    5.2082    0.2428 F   0  0  0  0  0  0  0  0  0  0  0  0
   -0.5688    3.2309   -0.9993 C   0  0  0  0  0  0  0  0  0  0  0  0
   -1.3900    2.4292   -0.0233 C   0  0  0  0  0  0  0  0  0  0  0  0
   -2.8463    2.2624   -0.4059 C   0  0  0  0  0  0  0  0  0  0  0  0
   -3.2586    1.2303   -0.9294 O   0  0  0  0  0  0  0  0  0  0  0  0
   -3.6261    3.3681   -0.1161 N   0  0  0  0  0  0  0  0  0  0  0  0
   -5.0184    3.4113   -0.3740 C   0  0  0  0  0  0  0  0  0  0  0  0
   -5.8480    2.3405   -0.0314 C   0  0  0  0  0  0  0  0  0  0  0  0
   -7.1914    2.3290   -0.1982 N   0  0  0  0  0  0  0  0  0  0  0  0
   -7.7302    3.4263   -0.7740 C   0  0  0  0  0  0  0  0  0  0  0  0
   -7.0059    4.5489   -1.1880 C   0  0  0  0  0  0  0  0  0  0  0  0
   -7.6263    5.6356   -1.8284 C   0  0  0  0  0  0  0  0  0  0  0  0
   -6.8766    6.7183   -2.2760 C   0  0  0  0  0  0  0  0  0  0  0  0
   -5.5019    6.7377   -2.0734 C   0  0  0  0  0  0  0  0  0  0  0  0
   -4.8760    5.6739   -1.4219 C   0  0  0  0  0  0  0  0  0  0  0  0
   -5.6073    4.5526   -0.9654 C   0  0  0  0  0  0  0  0  0  0  0  0
    0.0239    2.6270   -2.1183 C   0  0  0  0  0  0  0  0  0  0  0  0
    2.1633    3.3755   -4.6988 H   0  0  0  0  0  0  0  0  0  0  0  0
    0.7253    2.3544   -4.8531 H   0  0  0  0  0  0  0  0  0  0  0  0
    2.0966    1.8318   -3.8373 H   0  0  0  0  0  0  0  0  0  0  0  0
    1.7908    5.2868   -3.3272 H   0  0  0  0  0  0  0  0  0  0  0  0
    0.6866    6.3774   -1.3954 H   0  0  0  0  0  0  0  0  0  0  0  0
   -1.3365    2.8738    0.9774 H   0  0  0  0  0  0  0  0  0  0  0  0
   -0.9552    1.4275    0.0834 H   0  0  0  0  0  0  0  0  0  0  0  0
   -3.1375    4.2514   -0.0358 H   0  0  0  0  0  0  0  0  0  0  0  0
   -5.4526    1.4462    0.4427 H   0  0  0  0  0  0  0  0  0  0  0  0
   -8.8080    3.3709   -0.9133 H   0  0  0  0  0  0  0  0  0  0  0  0
   -8.7008    5.6251   -2.0063 H   0  0  0  0  0  0  0  0  0  0  0  0
   -7.3602    7.5377   -2.7986 H   0  0  0  0  0  0  0  0  0  0  0  0
   -4.9079    7.5730   -2.4380 H   0  0  0  0  0  0  0  0  0  0  0  0
   -3.7949    5.7224   -1.3194 H   0  0  0  0  0  0  0  0  0  0  0  0
   -0.1601    1.5725   -2.3242 H   0  0  0  0  0  0  0  0  0  0  0  0
  1  2  1  0  0  0  0
  1 23  1  0  0  0  0
  1 24  1  0  0  0  0
  1 25  1  0  0  0  0
  2  3  1  0  0  0  0
  2 22  2  0  0  0  0
  3  4  2  0  0  0  0
  3 26  1  0  0  0  0
  4  5  1  0  0  0  0
  4 27  1  0  0  0  0
  5  6  1  0  0  0  0
  5  7  2  0  0  0  0
  7  8  1  0  0  0  0
  7 22  1  0  0  0  0
  8  9  1  0  0  0  0
  8 28  1  0  0  0  0
  8 29  1  0  0  0  0
  9 10  2  0  0  0  0
  9 11  1  0  0  0  0
 11 12  1  0  0  0  0
 11 30  1  0  0  0  0
 12 13  1  0  0  0  0
 12 21  2  0  0  0  0
 13 14  2  0  0  0  0
 13 31  1  0  0  0  0
 14 15  1  0  0  0  0
 15 16  2  0  0  0  0
 15 32  1  0  0  0  0
 16 17  1  0  0  0  0
 16 21  1  0  0  0  0
 17 18  2  0  0  0  0
 17 33  1  0  0  0  0
 18 19  1  0  0  0  0
 18 34  1  0  0  0  0
 19 20  2  0  0  0  0
 19 35  1  0  0  0  0
 20 21  1  0  0  0  0
 20 36  1  0  0  0  0
 22 37  1  0  0  0  0
M  END
$$$$
