
 OpenBabel07202414213D

 35 38  0  0  0  0  0  0  0  0999 V2000
    2.3199   -3.9647   -2.2586 C   0  0  0  0  0  0  0  0  0  0  0  0
    3.2489   -3.3268   -1.4492 C   0  0  0  0  0  0  0  0  0  0  0  0
    2.8056   -2.7368   -0.2760 C   0  0  0  0  0  0  0  0  0  0  0  0
    1.5192   -2.7445    0.1448 N   0  0  0  0  0  0  0  0  0  0  0  0
    0.6172   -3.3480   -0.6825 C   0  0  0  0  0  0  0  0  0  0  0  0
    0.9815   -3.9705   -1.8750 C   0  0  0  0  0  0  0  0  0  0  0  0
   -0.7812   -3.3812   -0.2350 C   0  0  0  0  0  0  0  0  0  0  0  0
   -1.2504   -3.4486    1.1089 C   0  0  0  0  0  0  0  0  0  0  0  0
   -2.6103   -3.6032    1.0225 C   0  0  0  0  0  0  0  0  0  0  0  0
   -2.8959   -3.5771   -0.3074 N   0  0  0  0  0  0  0  0  0  0  0  0
   -1.8147   -3.4686   -1.0966 N   0  0  0  0  0  0  0  0  0  0  0  0
   -0.5003   -3.3678    2.2689 N   0  0  0  0  0  0  0  0  0  0  0  0
   -0.5631   -4.3577    3.2329 C   0  0  0  0  0  0  0  0  0  0  0  0
   -1.2885   -5.3457    3.1453 O   0  0  0  0  0  0  0  0  0  0  0  0
    0.3358   -4.1688    4.4266 C   0  0  0  0  0  0  0  0  0  0  0  0
    1.4190   -3.3542    4.3774 C   0  0  0  0  0  0  0  0  0  0  0  0
    2.2238   -3.1273    5.5668 C   0  0  0  0  0  0  0  0  0  0  0  0
    1.9365   -3.7309    6.7365 C   0  0  0  0  0  0  0  0  0  0  0  0
    0.8424   -4.6320    6.8026 C   0  0  0  0  0  0  0  0  0  0  0  0
    0.0814   -4.8321    5.6489 N   0  0  0  0  0  0  0  0  0  0  0  0
   -0.8774   -5.7549    6.0017 C   0  0  0  0  0  0  0  0  0  0  0  0
   -0.6785   -6.0328    7.3322 C   0  0  0  0  0  0  0  0  0  0  0  0
    0.3835   -5.3311    7.8262 N   0  0  0  0  0  0  0  0  0  0  0  0
    2.6254   -4.4500   -3.1808 H   0  0  0  0  0  0  0  0  0  0  0  0
    4.2972   -3.2914   -1.7284 H   0  0  0  0  0  0  0  0  0  0  0  0
    3.5049   -2.2178    0.3770 H   0  0  0  0  0  0  0  0  0  0  0  0
    0.2363   -4.4710   -2.4881 H   0  0  0  0  0  0  0  0  0  0  0  0
   -3.3830   -3.6888    1.7718 H   0  0  0  0  0  0  0  0  0  0  0  0
   -3.8083   -3.6276   -0.7488 H   0  0  0  0  0  0  0  0  0  0  0  0
    0.3579   -2.8458    2.1527 H   0  0  0  0  0  0  0  0  0  0  0  0
    1.7518   -2.8246    3.4933 H   0  0  0  0  0  0  0  0  0  0  0  0
    3.0505   -2.4273    5.5002 H   0  0  0  0  0  0  0  0  0  0  0  0
    2.5161   -3.5489    7.6306 H   0  0  0  0  0  0  0  0  0  0  0  0
   -1.6013   -6.1421    5.2994 H   0  0  0  0  0  0  0  0  0  0  0  0
   -1.2455   -6.7101    7.9566 H   0  0  0  0  0  0  0  0  0  0  0  0
  1  2  1  0  0  0  0
  1  6  2  0  0  0  0
  1 24  1  0  0  0  0
  2  3  2  0  0  0  0
  2 25  1  0  0  0  0
  3  4  1  0  0  0  0
  3 26  1  0  0  0  0
  4  5  2  0  0  0  0
  5  6  1  0  0  0  0
  5  7  1  0  0  0  0
  6 27  1  0  0  0  0
  7  8  1  0  0  0  0
  7 11  2  0  0  0  0
  8  9  2  0  0  0  0
  8 12  1  0  0  0  0
  9 10  1  0  0  0  0
  9 28  1  0  0  0  0
 10 11  1  0  0  0  0
 10 29  1  0  0  0  0
 12 13  1  0  0  0  0
 12 30  1  0  0  0  0
 13 14  2  0  0  0  0
 13 15  1  0  0  0  0
 15 16  2  0  0  0  0
 15 20  1  0  0  0  0
 16 17  1  0  0  0  0
 16 31  1  0  0  0  0
 17 18  2  0  0  0  0
 17 32  1  0  0  0  0
 18 19  1  0  0  0  0
 18 33  1  0  0  0  0
 19 20  1  0  0  0  0
 19 23  2  0  0  0  0
 20 21  1  0  0  0  0
 21 22  2  0  0  0  0
 21 34  1  0  0  0  0
 22 23  1  0  0  0  0
 22 35  1  0  0  0  0
M  END
$$$$
