
 OpenBabel07202414133D

 61 64  0  0  1  0  0  0  0  0999 V2000
   11.4717   -1.3124   -3.2051 C   0  0  0  0  0  0  0  0  0  0  0  0
   10.9937   -1.1592   -1.7684 C   0  0  0  0  0  0  0  0  0  0  0  0
   10.3490    0.2021   -1.5135 C   0  0  0  0  0  0  0  0  0  0  0  0
    9.1261    0.3736   -2.2729 N   0  0  0  0  0  0  0  0  0  0  0  0
    7.9360   -0.1533   -1.8384 C   0  0  0  0  0  0  0  0  0  0  0  0
    7.8053   -0.7011   -0.7458 O   0  0  0  0  0  0  0  0  0  0  0  0
    6.7287    0.1165   -2.7314 C   0  0  0  0  0  0  0  0  0  0  0  0
    6.9610    0.0826   -4.1764 N   0  0  0  0  0  0  0  0  0  0  0  0
    7.1387   -1.2026   -4.8440 C   0  0  0  0  0  0  0  0  0  0  0  0
    6.1716   -1.3660   -6.0154 C   0  0  3  0  0  0  0  0  0  0  0  0
    4.8106   -1.8519   -5.4995 C   0  0  0  0  0  0  0  0  0  0  0  0
    4.5651   -3.0562   -5.4989 O   0  0  0  0  0  0  0  0  0  0  0  0
    3.9766   -0.8645   -5.0036 N   0  0  0  0  0  0  0  0  0  0  0  0
    2.6368   -1.0095   -4.5456 C   0  0  0  0  0  0  0  0  0  0  0  0
    1.9851   -2.2424   -4.4871 C   0  0  0  0  0  0  0  0  0  0  0  0
    0.6662   -2.4017   -4.2292 N   0  0  0  0  0  0  0  0  0  0  0  0
   -0.0415   -1.2838   -3.9762 C   0  0  0  0  0  0  0  0  0  0  0  0
    0.5090   -0.0079   -3.8822 C   0  0  0  0  0  0  0  0  0  0  0  0
   -0.2867    1.0917   -3.5079 C   0  0  0  0  0  0  0  0  0  0  0  0
    0.2797    2.3609   -3.3917 C   0  0  0  0  0  0  0  0  0  0  0  0
   -0.7457    3.7507   -2.9620 S   0  0  0  0  0  0  0  0  0  0  0  0
   -0.6562    3.8336   -1.1920 C   0  0  0  0  0  0  0  0  0  0  0  0
   -0.1080    4.9380   -3.4984 O   0  0  0  0  0  0  0  0  0  0  0  0
   -2.1017    3.4099   -3.3270 O   0  0  0  0  0  0  0  0  0  0  0  0
    1.6255    2.5566   -3.6852 C   0  0  0  0  0  0  0  0  0  0  0  0
    2.4161    1.4650   -4.0655 C   0  0  0  0  0  0  0  0  0  0  0  0
    1.8881    0.1494   -4.1723 C   0  0  0  0  0  0  0  0  0  0  0  0
    6.1256   -0.0990   -6.8546 C   0  0  0  0  0  0  0  0  0  0  0  0
    5.6051   -0.1391   -8.1586 C   0  0  0  0  0  0  0  0  0  0  0  0
    5.5205    1.0301   -8.9173 C   0  0  0  0  0  0  0  0  0  0  0  0
    4.8543    0.9711  -10.5013 Cl  0  0  0  0  0  0  0  0  0  0  0  0
    5.9563    2.2470   -8.3967 C   0  0  0  0  0  0  0  0  0  0  0  0
    6.4855    2.3000   -7.1061 C   0  0  0  0  0  0  0  0  0  0  0  0
    6.5714    1.1349   -6.3330 C   0  0  0  0  0  0  0  0  0  0  0  0
    6.9866    1.2565   -4.9032 C   0  0  0  0  0  0  0  0  0  0  0  0
    7.2084    2.3507   -4.4019 O   0  0  0  0  0  0  0  0  0  0  0  0
   11.9472   -2.2885   -3.3424 H   0  0  0  0  0  0  0  0  0  0  0  0
   12.2033   -0.5384   -3.4567 H   0  0  0  0  0  0  0  0  0  0  0  0
   10.6390   -1.2424   -3.9120 H   0  0  0  0  0  0  0  0  0  0  0  0
   11.8492   -1.2815   -1.0944 H   0  0  0  0  0  0  0  0  0  0  0  0
   10.2857   -1.9643   -1.5387 H   0  0  0  0  0  0  0  0  0  0  0  0
   11.0293    1.0162   -1.7834 H   0  0  0  0  0  0  0  0  0  0  0  0
   10.1159    0.2983   -0.4465 H   0  0  0  0  0  0  0  0  0  0  0  0
    9.1280    0.9439   -3.1120 H   0  0  0  0  0  0  0  0  0  0  0  0
    6.3254    1.0953   -2.4512 H   0  0  0  0  0  0  0  0  0  0  0  0
    5.9623   -0.6343   -2.5134 H   0  0  0  0  0  0  0  0  0  0  0  0
    7.0504   -2.0194   -4.1191 H   0  0  0  0  0  0  0  0  0  0  0  0
    8.1684   -1.2101   -5.2261 H   0  0  0  0  0  0  0  0  0  0  0  0
    6.5591   -2.1700   -6.6572 H   0  0  0  0  0  0  0  0  0  0  0  0
    4.3035    0.0844   -5.1040 H   0  0  0  0  0  0  0  0  0  0  0  0
    2.4960   -3.1849   -4.6561 H   0  0  0  0  0  0  0  0  0  0  0  0
   -1.1069   -1.4544   -3.8369 H   0  0  0  0  0  0  0  0  0  0  0  0
   -1.3479    0.9517   -3.3038 H   0  0  0  0  0  0  0  0  0  0  0  0
    0.3706    4.0506   -0.8923 H   0  0  0  0  0  0  0  0  0  0  0  0
   -0.9960    2.8876   -0.7678 H   0  0  0  0  0  0  0  0  0  0  0  0
   -1.3142    4.6418   -0.8621 H   0  0  0  0  0  0  0  0  0  0  0  0
    2.0708    3.5483   -3.6322 H   0  0  0  0  0  0  0  0  0  0  0  0
    3.4649    1.6723   -4.2606 H   0  0  0  0  0  0  0  0  0  0  0  0
    5.2520   -1.0785   -8.5816 H   0  0  0  0  0  0  0  0  0  0  0  0
    5.8715    3.1599   -8.9820 H   0  0  0  0  0  0  0  0  0  0  0  0
    6.8001    3.2588   -6.6959 H   0  0  0  0  0  0  0  0  0  0  0  0
  1  2  1  0  0  0  0
  1 37  1  0  0  0  0
  1 38  1  0  0  0  0
  1 39  1  0  0  0  0
  2  3  1  0  0  0  0
  2 40  1  0  0  0  0
  2 41  1  0  0  0  0
  3  4  1  0  0  0  0
  3 42  1  0  0  0  0
  3 43  1  0  0  0  0
  4  5  1  0  0  0  0
  4 44  1  0  0  0  0
  5  6  2  0  0  0  0
  5  7  1  0  0  0  0
  7  8  1  0  0  0  0
  7 45  1  0  0  0  0
  7 46  1  0  0  0  0
  8  9  1  0  0  0  0
  8 35  1  0  0  0  0
  9 10  1  0  0  0  0
  9 47  1  0  0  0  0
  9 48  1  0  0  0  0
 10 11  1  0  0  0  0
 10 28  1  0  0  0  0
 10 49  1  0  0  0  0
 11 12  2  0  0  0  0
 11 13  1  0  0  0  0
 13 14  1  0  0  0  0
 13 50  1  0  0  0  0
 14 15  1  0  0  0  0
 14 27  2  0  0  0  0
 15 16  2  0  0  0  0
 15 51  1  0  0  0  0
 16 17  1  0  0  0  0
 17 18  2  0  0  0  0
 17 52  1  0  0  0  0
 18 19  1  0  0  0  0
 18 27  1  0  0  0  0
 19 20  2  0  0  0  0
 19 53  1  0  0  0  0
 20 21  1  0  0  0  0
 20 25  1  0  0  0  0
 21 22  1  0  0  0  0
 21 23  2  0  0  0  0
 21 24  2  0  0  0  0
 22 54  1  0  0  0  0
 22 55  1  0  0  0  0
 22 56  1  0  0  0  0
 25 26  2  0  0  0  0
 25 57  1  0  0  0  0
 26 27  1  0  0  0  0
 26 58  1  0  0  0  0
 28 29  1  0  0  0  0
 28 34  2  0  0  0  0
 29 30  2  0  0  0  0
 29 59  1  0  0  0  0
 30 31  1  0  0  0  0
 30 32  1  0  0  0  0
 32 33  2  0  0  0  0
 32 60  1  0  0  0  0
 33 34  1  0  0  0  0
 33 61  1  0  0  0  0
 34 35  1  0  0  0  0
 35 36  2  0  0  0  0
M  END
$$$$
