
 OpenBabel07202414153D

 42 44  0  0  0  0  0  0  0  0999 V2000
    2.7880   -0.0983   -2.9383 C   0  0  0  0  0  0  0  0  0  0  0  0
    2.6881   -0.4628   -1.5678 O   0  0  0  0  0  0  0  0  0  0  0  0
    2.8407    0.5232   -0.6301 C   0  0  0  0  0  0  0  0  0  0  0  0
    2.6361    1.8790   -0.9385 C   0  0  0  0  0  0  0  0  0  0  0  0
    2.7557    2.8673    0.0390 C   0  0  0  0  0  0  0  0  0  0  0  0
    3.0830    2.5126    1.3413 C   0  0  0  0  0  0  0  0  0  0  0  0
    3.2835    1.1708    1.6638 C   0  0  0  0  0  0  0  0  0  0  0  0
    3.1606    0.1596    0.6953 C   0  0  0  0  0  0  0  0  0  0  0  0
    3.3822   -1.0998    1.2120 O   0  0  0  0  0  0  0  0  0  0  0  0
    3.3703   -2.2050    0.3043 C   0  0  0  0  0  0  0  0  0  0  0  0
    3.7977   -3.4950    1.0042 C   0  0  0  0  0  0  0  0  0  0  0  0
    2.8140   -4.0335    1.9409 N   0  0  0  0  0  0  0  0  0  0  0  0
    2.1601   -5.2279    1.6820 C   0  0  0  0  0  0  0  0  0  0  0  0
    2.2631   -5.8157    0.6074 O   0  0  0  0  0  0  0  0  0  0  0  0
    1.3190   -5.8101    2.7535 C   0  0  0  0  0  0  0  0  0  0  0  0
    0.4487   -4.9842    3.4534 C   0  0  0  0  0  0  0  0  0  0  0  0
   -0.4246   -5.4166    4.3916 N   0  0  0  0  0  0  0  0  0  0  0  0
   -0.4034   -6.7368    4.6700 C   0  0  0  0  0  0  0  0  0  0  0  0
    0.4680   -7.6619    4.0879 C   0  0  0  0  0  0  0  0  0  0  0  0
    0.5024   -9.0019    4.5141 C   0  0  0  0  0  0  0  0  0  0  0  0
    1.3758   -9.9152    3.9276 C   0  0  0  0  0  0  0  0  0  0  0  0
    2.1835   -9.5082    2.8746 C   0  0  0  0  0  0  0  0  0  0  0  0
    2.1605   -8.1760    2.4479 C   0  0  0  0  0  0  0  0  0  0  0  0
    1.3311   -7.2047    3.0649 C   0  0  0  0  0  0  0  0  0  0  0  0
    2.8222   -1.0221   -3.5243 H   0  0  0  0  0  0  0  0  0  0  0  0
    3.7103    0.4576   -3.1383 H   0  0  0  0  0  0  0  0  0  0  0  0
    1.9062    0.4630   -3.2607 H   0  0  0  0  0  0  0  0  0  0  0  0
    2.3561    2.1981   -1.9383 H   0  0  0  0  0  0  0  0  0  0  0  0
    2.5834    3.9098   -0.2177 H   0  0  0  0  0  0  0  0  0  0  0  0
    3.1736    3.2799    2.1073 H   0  0  0  0  0  0  0  0  0  0  0  0
    3.5356    0.9048    2.6884 H   0  0  0  0  0  0  0  0  0  0  0  0
    4.1084   -2.0244   -0.4863 H   0  0  0  0  0  0  0  0  0  0  0  0
    2.3656   -2.3373   -0.1106 H   0  0  0  0  0  0  0  0  0  0  0  0
    4.7157   -3.3362    1.5840 H   0  0  0  0  0  0  0  0  0  0  0  0
    4.0111   -4.2487    0.2392 H   0  0  0  0  0  0  0  0  0  0  0  0
    2.7459   -3.5921    2.8501 H   0  0  0  0  0  0  0  0  0  0  0  0
    0.4080   -3.9141    3.2653 H   0  0  0  0  0  0  0  0  0  0  0  0
   -1.1437   -7.0540    5.4030 H   0  0  0  0  0  0  0  0  0  0  0  0
   -0.1367   -9.3414    5.3286 H   0  0  0  0  0  0  0  0  0  0  0  0
    1.4225  -10.9402    4.2875 H   0  0  0  0  0  0  0  0  0  0  0  0
    2.8425  -10.2214    2.3845 H   0  0  0  0  0  0  0  0  0  0  0  0
    2.8094   -7.9044    1.6170 H   0  0  0  0  0  0  0  0  0  0  0  0
  1  2  1  0  0  0  0
  1 25  1  0  0  0  0
  1 26  1  0  0  0  0
  1 27  1  0  0  0  0
  2  3  1  0  0  0  0
  3  4  1  0  0  0  0
  3  8  2  0  0  0  0
  4  5  2  0  0  0  0
  4 28  1  0  0  0  0
  5  6  1  0  0  0  0
  5 29  1  0  0  0  0
  6  7  2  0  0  0  0
  6 30  1  0  0  0  0
  7  8  1  0  0  0  0
  7 31  1  0  0  0  0
  8  9  1  0  0  0  0
  9 10  1  0  0  0  0
 10 11  1  0  0  0  0
 10 32  1  0  0  0  0
 10 33  1  0  0  0  0
 11 12  1  0  0  0  0
 11 34  1  0  0  0  0
 11 35  1  0  0  0  0
 12 13  1  0  0  0  0
 12 36  1  0  0  0  0
 13 14  2  0  0  0  0
 13 15  1  0  0  0  0
 15 16  1  0  0  0  0
 15 24  2  0  0  0  0
 16 17  2  0  0  0  0
 16 37  1  0  0  0  0
 17 18  1  0  0  0  0
 18 19  2  0  0  0  0
 18 38  1  0  0  0  0
 19 20  1  0  0  0  0
 19 24  1  0  0  0  0
 20 21  2  0  0  0  0
 20 39  1  0  0  0  0
 21 22  1  0  0  0  0
 21 40  1  0  0  0  0
 22 23  2  0  0  0  0
 22 41  1  0  0  0  0
 23 24  1  0  0  0  0
 23 42  1  0  0  0  0
M  END
$$$$
