
 OpenBabel07202414153D

 64 67  0  0  1  0  0  0  0  0999 V2000
    2.7385   -1.9003    0.3777 C   0  0  0  0  0  0  0  0  0  0  0  0
    2.3490   -0.5604    1.4809 S   0  0  0  0  0  0  0  0  0  0  0  0
    2.6120    0.6838    0.7832 O   0  0  0  0  0  0  0  0  0  0  0  0
    1.0155   -0.8233    1.9926 O   0  0  0  0  0  0  0  0  0  0  0  0
    3.4804   -0.7380    2.8603 C   0  0  0  0  0  0  0  0  0  0  0  0
    4.9342   -0.7902    2.4675 C   0  0  0  0  0  0  0  0  0  0  0  0
    5.5420    0.1558    1.6460 C   0  0  0  0  0  0  0  0  0  0  0  0
    6.8957    0.0347    1.2779 C   0  0  0  0  0  0  0  0  0  0  0  0
    7.7323   -0.9722    1.7881 C   0  0  0  0  0  0  0  0  0  0  0  0
    9.1201   -1.1586    1.3586 N   0  0  0  0  0  0  0  0  0  0  0  0
    9.7865   -2.5027    1.5107 C   0  0  3  0  0  0  0  0  0  0  0  0
   10.5084   -2.6746    2.8829 C   0  0  0  0  0  0  0  0  0  0  0  0
   10.1689   -2.0681    3.9026 O   0  0  0  0  0  0  0  0  0  0  0  0
   11.5589   -3.5899    2.9053 N   0  0  0  0  0  0  0  0  0  0  0  0
   12.4588   -3.6703    4.0570 C   0  0  0  0  0  0  0  0  0  0  0  0
   13.2614   -4.9758    4.0743 C   0  0  0  0  0  0  0  0  0  0  0  0
   14.1211   -5.1718    5.3044 C   0  0  0  0  0  0  0  0  0  0  0  0
   13.5891   -5.7795    6.4546 C   0  0  0  0  0  0  0  0  0  0  0  0
   14.3962   -6.0352    7.5699 C   0  0  0  0  0  0  0  0  0  0  0  0
   15.7427   -5.6782    7.5537 C   0  0  0  0  0  0  0  0  0  0  0  0
   16.2688   -5.0578    6.4250 C   0  0  0  0  0  0  0  0  0  0  0  0
   17.5631   -4.7174    6.4078 F   0  0  0  0  0  0  0  0  0  0  0  0
   15.4729   -4.7982    5.3099 C   0  0  0  0  0  0  0  0  0  0  0  0
    9.0132   -3.7577    1.0539 C   0  0  0  0  0  0  0  0  0  0  0  0
    8.1964   -4.5544    1.8697 C   0  0  0  0  0  0  0  0  0  0  0  0
    7.5597   -5.6897    1.3643 C   0  0  0  0  0  0  0  0  0  0  0  0
    7.8262   -6.0631    0.0634 C   0  0  0  0  0  0  0  0  0  0  0  0
    8.6332   -5.3597   -0.7540 N   0  0  0  0  0  0  0  0  0  0  0  0
    9.1819   -4.2235   -0.2524 C   0  0  0  0  0  0  0  0  0  0  0  0
    9.8535   -0.0097    0.9099 C   0  0  0  0  0  0  0  0  0  0  0  0
    9.3343    1.1098    0.8367 O   0  0  0  0  0  0  0  0  0  0  0  0
   11.2823   -0.0616    0.5222 C   0  0  0  0  0  0  0  0  0  0  0  0
   11.9457    1.0276   -0.0261 C   0  0  0  0  0  0  0  0  0  0  0  0
   13.2396    0.6501   -0.2160 N   0  0  0  0  0  0  0  0  0  0  0  0
   13.3351   -0.6477    0.1990 C   0  0  0  0  0  0  0  0  0  0  0  0
   12.1900   -1.1012    0.6611 N   0  0  0  0  0  0  0  0  0  0  0  0
    7.1449   -1.7798    2.7599 C   0  0  0  0  0  0  0  0  0  0  0  0
    5.7706   -1.7428    3.0524 C   0  0  0  0  0  0  0  0  0  0  0  0
    2.0345   -1.8571   -0.4579 H   0  0  0  0  0  0  0  0  0  0  0  0
    2.6143   -2.8427    0.9139 H   0  0  0  0  0  0  0  0  0  0  0  0
    3.7562   -1.7898    0.0039 H   0  0  0  0  0  0  0  0  0  0  0  0
    3.1836   -1.6707    3.3548 H   0  0  0  0  0  0  0  0  0  0  0  0
    3.2988    0.0912    3.5493 H   0  0  0  0  0  0  0  0  0  0  0  0
    4.9870    1.0098    1.2593 H   0  0  0  0  0  0  0  0  0  0  0  0
    7.2455    0.7742    0.5637 H   0  0  0  0  0  0  0  0  0  0  0  0
   10.6002   -2.5010    0.7896 H   0  0  0  0  0  0  0  0  0  0  0  0
   11.9298   -3.8751    2.0062 H   0  0  0  0  0  0  0  0  0  0  0  0
   11.8726   -3.5605    4.9761 H   0  0  0  0  0  0  0  0  0  0  0  0
   13.1346   -2.8086    3.9969 H   0  0  0  0  0  0  0  0  0  0  0  0
   13.8962   -5.0301    3.1809 H   0  0  0  0  0  0  0  0  0  0  0  0
   12.5754   -5.8293    3.9907 H   0  0  0  0  0  0  0  0  0  0  0  0
   12.5437   -6.0795    6.4826 H   0  0  0  0  0  0  0  0  0  0  0  0
   13.9762   -6.5243    8.4457 H   0  0  0  0  0  0  0  0  0  0  0  0
   16.3839   -5.8836    8.4052 H   0  0  0  0  0  0  0  0  0  0  0  0
   15.9315   -4.3257    4.4466 H   0  0  0  0  0  0  0  0  0  0  0  0
    8.0371   -4.3326    2.9188 H   0  0  0  0  0  0  0  0  0  0  0  0
    6.8875   -6.2759    1.9823 H   0  0  0  0  0  0  0  0  0  0  0  0
    7.3964   -6.9668   -0.3603 H   0  0  0  0  0  0  0  0  0  0  0  0
    9.8175   -3.7006   -0.9638 H   0  0  0  0  0  0  0  0  0  0  0  0
   11.5897    2.0231   -0.2715 H   0  0  0  0  0  0  0  0  0  0  0  0
   13.9916    1.2277   -0.5865 H   0  0  0  0  0  0  0  0  0  0  0  0
   14.2726   -1.1914    0.1464 H   0  0  0  0  0  0  0  0  0  0  0  0
    7.7550   -2.4245    3.3768 H   0  0  0  0  0  0  0  0  0  0  0  0
    5.3807   -2.4541    3.7784 H   0  0  0  0  0  0  0  0  0  0  0  0
  1  2  1  0  0  0  0
  1 39  1  0  0  0  0
  1 40  1  0  0  0  0
  1 41  1  0  0  0  0
  2  3  2  0  0  0  0
  2  4  2  0  0  0  0
  2  5  1  0  0  0  0
  5  6  1  0  0  0  0
  5 42  1  0  0  0  0
  5 43  1  0  0  0  0
  6  7  1  0  0  0  0
  6 38  2  0  0  0  0
  7  8  2  0  0  0  0
  7 44  1  0  0  0  0
  8  9  1  0  0  0  0
  8 45  1  0  0  0  0
  9 10  1  0  0  0  0
  9 37  2  0  0  0  0
 10 11  1  0  0  0  0
 10 30  1  0  0  0  0
 11 12  1  0  0  0  0
 11 24  1  0  0  0  0
 11 46  1  0  0  0  0
 12 13  2  0  0  0  0
 12 14  1  0  0  0  0
 14 15  1  0  0  0  0
 14 47  1  0  0  0  0
 15 16  1  0  0  0  0
 15 48  1  0  0  0  0
 15 49  1  0  0  0  0
 16 17  1  0  0  0  0
 16 50  1  0  0  0  0
 16 51  1  0  0  0  0
 17 18  1  0  0  0  0
 17 23  2  0  0  0  0
 18 19  2  0  0  0  0
 18 52  1  0  0  0  0
 19 20  1  0  0  0  0
 19 53  1  0  0  0  0
 20 21  2  0  0  0  0
 20 54  1  0  0  0  0
 21 22  1  0  0  0  0
 21 23  1  0  0  0  0
 23 55  1  0  0  0  0
 24 25  1  0  0  0  0
 24 29  2  0  0  0  0
 25 26  2  0  0  0  0
 25 56  1  0  0  0  0
 26 27  1  0  0  0  0
 26 57  1  0  0  0  0
 27 28  2  0  0  0  0
 27 58  1  0  0  0  0
 28 29  1  0  0  0  0
 29 59  1  0  0  0  0
 30 31  2  0  0  0  0
 30 32  1  0  0  0  0
 32 33  2  0  0  0  0
 32 36  1  0  0  0  0
 33 34  1  0  0  0  0
 33 60  1  0  0  0  0
 34 35  1  0  0  0  0
 34 61  1  0  0  0  0
 35 36  2  0  0  0  0
 35 62  1  0  0  0  0
 37 38  1  0  0  0  0
 37 63  1  0  0  0  0
 38 64  1  0  0  0  0
M  END
$$$$
