
 OpenBabel07202414173D

 66 71  0  0  1  0  0  0  0  0999 V2000
   -2.2224   -0.1140    0.2322 Cl  0  0  0  0  0  0  0  0  0  0  0  0
   -0.5090   -0.0750    0.0620 C   0  0  0  0  0  0  0  0  0  0  0  0
    0.1532    1.1502    0.0886 C   0  0  0  0  0  0  0  0  0  0  0  0
    1.5410    1.1866   -0.0588 C   0  0  0  0  0  0  0  0  0  0  0  0
    2.2915    2.4946   -0.0326 C   0  0  0  0  0  0  0  0  0  0  0  0
    3.2172    2.6898   -1.2227 C   0  0  0  0  0  0  0  0  0  0  0  0
    4.3575    3.1217   -1.0740 O   0  0  0  0  0  0  0  0  0  0  0  0
    2.6273    2.4427   -2.4503 N   0  0  0  0  0  0  0  0  0  0  0  0
    3.3130    2.5335   -3.6836 C   0  0  0  0  0  0  0  0  0  0  0  0
    4.6420    2.1219   -3.8039 C   0  0  0  0  0  0  0  0  0  0  0  0
    5.3464    2.1389   -4.9569 N   0  0  0  0  0  0  0  0  0  0  0  0
    4.7064    2.6303   -6.0394 C   0  0  0  0  0  0  0  0  0  0  0  0
    3.3889    3.0958   -6.0419 C   0  0  0  0  0  0  0  0  0  0  0  0
    2.8069    3.6448   -7.1983 C   0  0  0  0  0  0  0  0  0  0  0  0
    1.5067    4.1453   -7.1711 C   0  0  0  0  0  0  0  0  0  0  0  0
    0.7709    4.0927   -5.9944 C   0  0  0  0  0  0  0  0  0  0  0  0
    1.3338    3.5397   -4.8424 C   0  0  0  0  0  0  0  0  0  0  0  0
    2.6564    3.0311   -4.8350 C   0  0  0  0  0  0  0  0  0  0  0  0
    2.2395   -0.0239   -0.2054 C   0  0  0  0  0  0  0  0  0  0  0  0
    1.5881   -1.2674   -0.2376 C   0  0  0  0  0  0  0  0  0  0  0  0
    2.3560   -2.4224   -0.3425 N   0  0  0  0  0  0  0  0  0  0  0  0
    1.8366   -3.6900    0.2052 C   0  0  0  0  0  0  0  0  0  0  0  0
    3.0341   -4.6132    0.4903 C   0  0  0  0  0  0  0  0  0  0  0  0
    3.7874   -4.8610   -0.7485 N   0  0  0  0  0  0  0  0  0  0  0  0
    4.0306   -6.1095   -1.3280 C   0  0  0  0  0  0  0  0  0  0  0  0
    4.6538   -6.1946   -2.3896 O   0  0  0  0  0  0  0  0  0  0  0  0
    3.5940   -7.3749   -0.5484 C   0  0  2  0  0  0  0  0  0  0  0  0
    3.9347   -8.6707   -1.2929 C   0  0  0  0  0  0  0  0  0  0  0  0
    3.0597   -8.9667   -2.3886 O   0  0  0  0  0  0  0  0  0  0  0  0
    1.7902   -8.4897   -2.2255 C   0  0  0  0  0  0  0  0  0  0  0  0
    0.8803   -8.7626   -3.2445 C   0  0  0  0  0  0  0  0  0  0  0  0
   -0.4220   -8.2631   -3.1715 C   0  0  0  0  0  0  0  0  0  0  0  0
   -0.8262   -7.5232   -2.0598 C   0  0  0  0  0  0  0  0  0  0  0  0
    0.0739   -7.2781   -1.0239 C   0  0  0  0  0  0  0  0  0  0  0  0
    1.3867   -7.7357   -1.1265 C   0  0  0  0  0  0  0  0  0  0  0  0
    2.2365   -7.4009   -0.1126 O   0  0  0  0  0  0  0  0  0  0  0  0
    4.2521   -3.6334   -1.4077 C   0  0  0  0  0  0  0  0  0  0  0  0
    3.1133   -2.6040   -1.6087 C   0  0  0  0  0  0  0  0  0  0  0  0
    0.1965   -1.2702   -0.1009 C   0  0  0  0  0  0  0  0  0  0  0  0
   -0.4135    2.0671    0.2315 H   0  0  0  0  0  0  0  0  0  0  0  0
    2.8953    2.5305    0.8817 H   0  0  0  0  0  0  0  0  0  0  0  0
    1.6008    3.3469   -0.0024 H   0  0  0  0  0  0  0  0  0  0  0  0
    1.6187    2.3783   -2.4779 H   0  0  0  0  0  0  0  0  0  0  0  0
    5.1887    1.7134   -2.9580 H   0  0  0  0  0  0  0  0  0  0  0  0
    5.3136    2.6551   -6.9410 H   0  0  0  0  0  0  0  0  0  0  0  0
    3.3748    3.7068   -8.1242 H   0  0  0  0  0  0  0  0  0  0  0  0
    1.0743    4.5885   -8.0645 H   0  0  0  0  0  0  0  0  0  0  0  0
   -0.2375    4.4983   -5.9635 H   0  0  0  0  0  0  0  0  0  0  0  0
    0.7313    3.5517   -3.9394 H   0  0  0  0  0  0  0  0  0  0  0  0
    3.3284   -0.0057   -0.2615 H   0  0  0  0  0  0  0  0  0  0  0  0
    1.1543   -4.1595   -0.5158 H   0  0  0  0  0  0  0  0  0  0  0  0
    1.2944   -3.5231    1.1425 H   0  0  0  0  0  0  0  0  0  0  0  0
    2.7025   -5.5228    0.9838 H   0  0  0  0  0  0  0  0  0  0  0  0
    3.7263   -4.1190    1.1833 H   0  0  0  0  0  0  0  0  0  0  0  0
    4.2100   -7.3661    0.3629 H   0  0  0  0  0  0  0  0  0  0  0  0
    3.8842   -9.5202   -0.5999 H   0  0  0  0  0  0  0  0  0  0  0  0
    4.9547   -8.6390   -1.6904 H   0  0  0  0  0  0  0  0  0  0  0  0
    1.1913   -9.3510   -4.1034 H   0  0  0  0  0  0  0  0  0  0  0  0
   -1.1185   -8.4477   -3.9854 H   0  0  0  0  0  0  0  0  0  0  0  0
   -1.8387   -7.1320   -2.0053 H   0  0  0  0  0  0  0  0  0  0  0  0
   -0.2399   -6.7087   -0.1541 H   0  0  0  0  0  0  0  0  0  0  0  0
    4.7310   -3.8471   -2.3696 H   0  0  0  0  0  0  0  0  0  0  0  0
    5.0161   -3.2006   -0.7516 H   0  0  0  0  0  0  0  0  0  0  0  0
    2.4280   -2.9618   -2.3879 H   0  0  0  0  0  0  0  0  0  0  0  0
    3.5533   -1.6634   -1.9606 H   0  0  0  0  0  0  0  0  0  0  0  0
   -0.3569   -2.2034   -0.1276 H   0  0  0  0  0  0  0  0  0  0  0  0
  1  2  1  0  0  0  0
  2  3  1  0  0  0  0
  2 39  2  0  0  0  0
  3  4  2  0  0  0  0
  3 40  1  0  0  0  0
  4  5  1  0  0  0  0
  4 19  1  0  0  0  0
  5  6  1  0  0  0  0
  5 41  1  0  0  0  0
  5 42  1  0  0  0  0
  6  7  2  0  0  0  0
  6  8  1  0  0  0  0
  8  9  1  0  0  0  0
  8 43  1  0  0  0  0
  9 10  1  0  0  0  0
  9 18  2  0  0  0  0
 10 11  2  0  0  0  0
 10 44  1  0  0  0  0
 11 12  1  0  0  0  0
 12 13  2  0  0  0  0
 12 45  1  0  0  0  0
 13 14  1  0  0  0  0
 13 18  1  0  0  0  0
 14 15  2  0  0  0  0
 14 46  1  0  0  0  0
 15 16  1  0  0  0  0
 15 47  1  0  0  0  0
 16 17  2  0  0  0  0
 16 48  1  0  0  0  0
 17 18  1  0  0  0  0
 17 49  1  0  0  0  0
 19 20  2  0  0  0  0
 19 50  1  0  0  0  0
 20 21  1  0  0  0  0
 20 39  1  0  0  0  0
 21 22  1  0  0  0  0
 21 38  1  0  0  0  0
 22 23  1  0  0  0  0
 22 51  1  0  0  0  0
 22 52  1  0  0  0  0
 23 24  1  0  0  0  0
 23 53  1  0  0  0  0
 23 54  1  0  0  0  0
 24 25  1  0  0  0  0
 24 37  1  0  0  0  0
 25 26  2  0  0  0  0
 25 27  1  0  0  0  0
 27 28  1  0  0  0  0
 27 36  1  0  0  0  0
 27 55  1  1  0  0  0
 28 29  1  0  0  0  0
 28 56  1  0  0  0  0
 28 57  1  0  0  0  0
 29 30  1  0  0  0  0
 30 31  1  0  0  0  0
 30 35  2  0  0  0  0
 31 32  2  0  0  0  0
 31 58  1  0  0  0  0
 32 33  1  0  0  0  0
 32 59  1  0  0  0  0
 33 34  2  0  0  0  0
 33 60  1  0  0  0  0
 34 35  1  0  0  0  0
 34 61  1  0  0  0  0
 35 36  1  0  0  0  0
 37 38  1  0  0  0  0
 37 62  1  0  0  0  0
 37 63  1  0  0  0  0
 38 64  1  0  0  0  0
 38 65  1  0  0  0  0
 39 66  1  0  0  0  0
M  END
$$$$
