
 OpenBabel07202414133D

 63 65  0  0  1  0  0  0  0  0999 V2000
    2.3428   -6.2155    6.3856 C   0  0  0  0  0  0  0  0  0  0  0  0
    3.5364   -5.5261    5.9337 N   0  0  0  0  0  0  0  0  0  0  0  0
    4.8342   -5.9619    6.4190 C   0  0  0  0  0  0  0  0  0  0  0  0
    3.3686   -4.5452    4.9676 C   0  0  0  0  0  0  0  0  0  0  0  0
    2.2578   -4.1179    4.6505 O   0  0  0  0  0  0  0  0  0  0  0  0
    4.6011   -4.1222    4.1828 C   0  0  0  0  0  0  0  0  0  0  0  0
    5.6848   -3.3417    4.6743 N   0  0  0  0  0  0  0  0  0  0  0  0
    6.8050   -3.0416    3.9484 C   0  0  0  0  0  0  0  0  0  0  0  0
    7.6133   -2.2951    4.5186 O   0  0  0  0  0  0  0  0  0  0  0  0
    7.0114   -3.4149    2.3923 C   0  0  3  0  0  0  0  0  0  0  0  0
    6.6724   -4.7593    1.7489 N   0  0  0  0  0  0  0  0  0  0  0  0
    7.6284   -5.7958    1.5122 C   0  0  0  0  0  0  0  0  0  0  0  0
    7.2862   -6.9248    1.1372 O   0  0  0  0  0  0  0  0  0  0  0  0
    9.0686   -5.5881    1.6390 C   0  0  0  0  0  0  0  0  0  0  0  0
    9.9608   -6.6335    1.7831 C   0  0  0  0  0  0  0  0  0  0  0  0
   11.2252   -6.1425    1.7383 O   0  0  0  0  0  0  0  0  0  0  0  0
   11.0422   -4.8098    1.5513 C   0  0  0  0  0  0  0  0  0  0  0  0
    9.7880   -4.4165    1.4879 N   0  0  0  0  0  0  0  0  0  0  0  0
    5.2828   -5.1295    1.5095 C   0  0  0  0  0  0  0  0  0  0  0  0
    4.8042   -6.3493    2.0368 C   0  0  0  0  0  0  0  0  0  0  0  0
    3.4381   -6.6453    2.0908 C   0  0  0  0  0  0  0  0  0  0  0  0
    2.4855   -5.7779    1.5486 C   0  0  0  0  0  0  0  0  0  0  0  0
    0.9795   -6.1020    1.5862 C   0  0  0  0  0  0  0  0  0  0  0  0
    0.6343   -7.3512    2.4347 C   0  0  0  0  0  0  0  0  0  0  0  0
    0.1374   -4.9401    2.1588 C   0  0  0  0  0  0  0  0  0  0  0  0
    0.5213   -6.3790    0.1428 C   0  0  0  0  0  0  0  0  0  0  0  0
    2.9765   -4.6198    0.9117 C   0  0  0  0  0  0  0  0  0  0  0  0
    4.3569   -4.3048    0.8800 C   0  0  0  0  0  0  0  0  0  0  0  0
    6.6965   -2.2032    1.5176 C   0  0  0  0  0  0  0  0  0  0  0  0
    7.4663   -1.9218    0.3814 C   0  0  0  0  0  0  0  0  0  0  0  0
    7.1748   -0.8062   -0.3989 C   0  0  0  0  0  0  0  0  0  0  0  0
    6.1104   -0.0046   -0.0274 C   0  0  0  0  0  0  0  0  0  0  0  0
    5.3454   -0.2355    1.0580 N   0  0  0  0  0  0  0  0  0  0  0  0
    5.6642   -1.3119    1.8123 C   0  0  0  0  0  0  0  0  0  0  0  0
    2.5614   -6.8765    7.2264 H   0  0  0  0  0  0  0  0  0  0  0  0
    1.9355   -6.8031    5.5560 H   0  0  0  0  0  0  0  0  0  0  0  0
    1.5956   -5.4760    6.6864 H   0  0  0  0  0  0  0  0  0  0  0  0
    4.7256   -6.6624    7.2503 H   0  0  0  0  0  0  0  0  0  0  0  0
    5.3753   -5.0797    6.7713 H   0  0  0  0  0  0  0  0  0  0  0  0
    5.4052   -6.4355    5.6155 H   0  0  0  0  0  0  0  0  0  0  0  0
    4.2333   -3.5996    3.3029 H   0  0  0  0  0  0  0  0  0  0  0  0
    5.0959   -5.0501    3.9297 H   0  0  0  0  0  0  0  0  0  0  0  0
    5.6200   -2.9151    5.5918 H   0  0  0  0  0  0  0  0  0  0  0  0
    8.1002   -3.4102    2.4195 H   0  0  0  0  0  0  0  0  0  0  0  0
    9.8544   -7.7058    1.8781 H   0  0  0  0  0  0  0  0  0  0  0  0
   11.9377   -4.2119    1.4573 H   0  0  0  0  0  0  0  0  0  0  0  0
    5.4673   -7.0370    2.5577 H   0  0  0  0  0  0  0  0  0  0  0  0
    3.1529   -7.5531    2.6169 H   0  0  0  0  0  0  0  0  0  0  0  0
    0.9065   -7.2073    3.4861 H   0  0  0  0  0  0  0  0  0  0  0  0
    1.1490   -8.2483    2.0723 H   0  0  0  0  0  0  0  0  0  0  0  0
   -0.4396   -7.5697    2.4054 H   0  0  0  0  0  0  0  0  0  0  0  0
    0.3437   -4.7786    3.2211 H   0  0  0  0  0  0  0  0  0  0  0  0
   -0.9346   -5.1614    2.0774 H   0  0  0  0  0  0  0  0  0  0  0  0
    0.3098   -3.9936    1.6377 H   0  0  0  0  0  0  0  0  0  0  0  0
    1.0862   -7.2102   -0.2947 H   0  0  0  0  0  0  0  0  0  0  0  0
    0.6639   -5.5048   -0.5019 H   0  0  0  0  0  0  0  0  0  0  0  0
   -0.5420   -6.6406    0.1088 H   0  0  0  0  0  0  0  0  0  0  0  0
    2.2879   -3.9225    0.4369 H   0  0  0  0  0  0  0  0  0  0  0  0
    4.6538   -3.3895    0.3748 H   0  0  0  0  0  0  0  0  0  0  0  0
    8.3065   -2.5579    0.1102 H   0  0  0  0  0  0  0  0  0  0  0  0
    7.7666   -0.5664   -1.2750 H   0  0  0  0  0  0  0  0  0  0  0  0
    5.8376    0.8719   -0.6075 H   0  0  0  0  0  0  0  0  0  0  0  0
    5.0207   -1.4334    2.6796 H   0  0  0  0  0  0  0  0  0  0  0  0
  1  2  1  0  0  0  0
  1 35  1  0  0  0  0
  1 36  1  0  0  0  0
  1 37  1  0  0  0  0
  2  3  1  0  0  0  0
  2  4  1  0  0  0  0
  3 38  1  0  0  0  0
  3 39  1  0  0  0  0
  3 40  1  0  0  0  0
  4  5  2  0  0  0  0
  4  6  1  0  0  0  0
  6  7  1  0  0  0  0
  6 41  1  0  0  0  0
  6 42  1  0  0  0  0
  7  8  1  0  0  0  0
  7 43  1  0  0  0  0
  8  9  2  0  0  0  0
  8 10  1  0  0  0  0
 10 11  1  0  0  0  0
 10 29  1  0  0  0  0
 10 44  1  0  0  0  0
 11 12  1  0  0  0  0
 11 19  1  0  0  0  0
 12 13  2  0  0  0  0
 12 14  1  0  0  0  0
 14 15  2  0  0  0  0
 14 18  1  0  0  0  0
 15 16  1  0  0  0  0
 15 45  1  0  0  0  0
 16 17  1  0  0  0  0
 17 18  2  0  0  0  0
 17 46  1  0  0  0  0
 19 20  1  0  0  0  0
 19 28  2  0  0  0  0
 20 21  2  0  0  0  0
 20 47  1  0  0  0  0
 21 22  1  0  0  0  0
 21 48  1  0  0  0  0
 22 23  1  0  0  0  0
 22 27  2  0  0  0  0
 23 24  1  0  0  0  0
 23 25  1  0  0  0  0
 23 26  1  0  0  0  0
 24 49  1  0  0  0  0
 24 50  1  0  0  0  0
 24 51  1  0  0  0  0
 25 52  1  0  0  0  0
 25 53  1  0  0  0  0
 25 54  1  0  0  0  0
 26 55  1  0  0  0  0
 26 56  1  0  0  0  0
 26 57  1  0  0  0  0
 27 28  1  0  0  0  0
 27 58  1  0  0  0  0
 28 59  1  0  0  0  0
 29 30  1  0  0  0  0
 29 34  2  0  0  0  0
 30 31  2  0  0  0  0
 30 60  1  0  0  0  0
 31 32  1  0  0  0  0
 31 61  1  0  0  0  0
 32 33  2  0  0  0  0
 32 62  1  0  0  0  0
 33 34  1  0  0  0  0
 34 63  1  0  0  0  0
M  END
$$$$
