
 OpenBabel07202414153D

 51 54  0  0  0  0  0  0  0  0999 V2000
    2.5422   -1.1923    0.1361 C   0  0  0  0  0  0  0  0  0  0  0  0
    3.3593   -0.5071    1.0760 O   0  0  0  0  0  0  0  0  0  0  0  0
    3.6293    0.8117    0.8386 C   0  0  0  0  0  0  0  0  0  0  0  0
    3.0193    1.6299   -0.1131 C   0  0  0  0  0  0  0  0  0  0  0  0
    3.4572    2.9546   -0.2862 C   0  0  0  0  0  0  0  0  0  0  0  0
    4.5095    3.4586    0.4903 C   0  0  0  0  0  0  0  0  0  0  0  0
    5.1082    4.7259    0.2178 N   0  0  0  0  0  0  0  0  0  0  0  0
    6.0464    4.7263   -0.9195 C   0  0  0  0  0  0  0  0  0  0  0  0
    7.5352    4.7257   -0.6169 C   0  0  0  0  0  0  0  0  0  0  0  0
    8.4110    4.7198   -1.7250 C   0  0  0  0  0  0  0  0  0  0  0  0
    9.8015    4.7913   -1.5649 C   0  0  0  0  0  0  0  0  0  0  0  0
   10.3404    4.8690   -0.2863 C   0  0  0  0  0  0  0  0  0  0  0  0
    9.4905    4.8493    0.8195 C   0  0  0  0  0  0  0  0  0  0  0  0
   10.1714    4.9586    2.3969 Cl  0  0  0  0  0  0  0  0  0  0  0  0
    8.0983    4.7698    0.6656 C   0  0  0  0  0  0  0  0  0  0  0  0
    4.4275    5.8788    0.6292 C   0  0  0  0  0  0  0  0  0  0  0  0
    3.3419    5.8447    1.2157 O   0  0  0  0  0  0  0  0  0  0  0  0
    5.1084    7.2261    0.3987 C   0  0  0  0  0  0  0  0  0  0  0  0
    4.5399    8.1319   -0.6771 C   0  0  0  0  0  0  0  0  0  0  0  0
    3.4166    7.7797   -1.4251 C   0  0  0  0  0  0  0  0  0  0  0  0
    2.8415    8.5635   -2.3637 N   0  0  0  0  0  0  0  0  0  0  0  0
    3.4193    9.7617   -2.5910 C   0  0  0  0  0  0  0  0  0  0  0  0
    4.5754   10.2123   -1.9580 C   0  0  0  0  0  0  0  0  0  0  0  0
    5.1745   11.4373   -2.3057 C   0  0  0  0  0  0  0  0  0  0  0  0
    6.3314   11.8710   -1.6633 C   0  0  0  0  0  0  0  0  0  0  0  0
    6.8730   11.1089   -0.6372 C   0  0  0  0  0  0  0  0  0  0  0  0
    6.2808    9.8936   -0.2813 C   0  0  0  0  0  0  0  0  0  0  0  0
    5.1397    9.3943   -0.9533 C   0  0  0  0  0  0  0  0  0  0  0  0
    5.0596    2.6650    1.4940 C   0  0  0  0  0  0  0  0  0  0  0  0
    4.6199    1.3504    1.6635 C   0  0  0  0  0  0  0  0  0  0  0  0
    2.5378   -2.2520    0.4136 H   0  0  0  0  0  0  0  0  0  0  0  0
    2.9445   -1.1208   -0.8804 H   0  0  0  0  0  0  0  0  0  0  0  0
    1.5107   -0.8319    0.1813 H   0  0  0  0  0  0  0  0  0  0  0  0
    2.2058    1.2673   -0.7340 H   0  0  0  0  0  0  0  0  0  0  0  0
    2.9749    3.5795   -1.0333 H   0  0  0  0  0  0  0  0  0  0  0  0
    5.8385    5.6111   -1.5314 H   0  0  0  0  0  0  0  0  0  0  0  0
    5.8300    3.8576   -1.5560 H   0  0  0  0  0  0  0  0  0  0  0  0
    8.0093    4.6716   -2.7372 H   0  0  0  0  0  0  0  0  0  0  0  0
   10.4475    4.7977   -2.4373 H   0  0  0  0  0  0  0  0  0  0  0  0
   11.4179    4.9457   -0.1633 H   0  0  0  0  0  0  0  0  0  0  0  0
    7.4714    4.7472    1.5521 H   0  0  0  0  0  0  0  0  0  0  0  0
    6.1770    7.0776    0.2249 H   0  0  0  0  0  0  0  0  0  0  0  0
    5.0264    7.7579    1.3568 H   0  0  0  0  0  0  0  0  0  0  0  0
    2.9145    6.8238   -1.3008 H   0  0  0  0  0  0  0  0  0  0  0  0
    2.9042   10.3782   -3.3242 H   0  0  0  0  0  0  0  0  0  0  0  0
    4.7504   12.0534   -3.0954 H   0  0  0  0  0  0  0  0  0  0  0  0
    6.8043   12.8039   -1.9592 H   0  0  0  0  0  0  0  0  0  0  0  0
    7.7590   11.4553   -0.1111 H   0  0  0  0  0  0  0  0  0  0  0  0
    6.7318    9.3397    0.5385 H   0  0  0  0  0  0  0  0  0  0  0  0
    5.8364    3.0518    2.1447 H   0  0  0  0  0  0  0  0  0  0  0  0
    5.0729    0.7294    2.4318 H   0  0  0  0  0  0  0  0  0  0  0  0
  1  2  1  0  0  0  0
  1 31  1  0  0  0  0
  1 32  1  0  0  0  0
  1 33  1  0  0  0  0
  2  3  1  0  0  0  0
  3  4  1  0  0  0  0
  3 30  2  0  0  0  0
  4  5  2  0  0  0  0
  4 34  1  0  0  0  0
  5  6  1  0  0  0  0
  5 35  1  0  0  0  0
  6  7  1  0  0  0  0
  6 29  2  0  0  0  0
  7  8  1  0  0  0  0
  7 16  1  0  0  0  0
  8  9  1  0  0  0  0
  8 36  1  0  0  0  0
  8 37  1  0  0  0  0
  9 10  1  0  0  0  0
  9 15  2  0  0  0  0
 10 11  2  0  0  0  0
 10 38  1  0  0  0  0
 11 12  1  0  0  0  0
 11 39  1  0  0  0  0
 12 13  2  0  0  0  0
 12 40  1  0  0  0  0
 13 14  1  0  0  0  0
 13 15  1  0  0  0  0
 15 41  1  0  0  0  0
 16 17  2  0  0  0  0
 16 18  1  0  0  0  0
 18 19  1  0  0  0  0
 18 42  1  0  0  0  0
 18 43  1  0  0  0  0
 19 20  1  0  0  0  0
 19 28  2  0  0  0  0
 20 21  2  0  0  0  0
 20 44  1  0  0  0  0
 21 22  1  0  0  0  0
 22 23  2  0  0  0  0
 22 45  1  0  0  0  0
 23 24  1  0  0  0  0
 23 28  1  0  0  0  0
 24 25  2  0  0  0  0
 24 46  1  0  0  0  0
 25 26  1  0  0  0  0
 25 47  1  0  0  0  0
 26 27  2  0  0  0  0
 26 48  1  0  0  0  0
 27 28  1  0  0  0  0
 27 49  1  0  0  0  0
 29 30  1  0  0  0  0
 29 50  1  0  0  0  0
 30 51  1  0  0  0  0
M  END
$$$$
