
 OpenBabel07202414123D

 43 44  0  0  1  0  0  0  0  0999 V2000
    1.0782   -0.3347   -0.2748 C   0  0  0  0  0  0  0  0  0  0  0  0
    2.5983   -0.1194   -0.0381 C   0  0  3  0  0  0  0  0  0  0  0  0
    3.0641    0.6878   -1.2960 C   0  0  0  0  0  0  0  0  0  0  0  0
    4.5538    0.9753   -1.4195 C   0  0  0  0  0  0  0  0  0  0  0  0
    4.9657    1.6829   -2.6825 C   0  0  0  0  0  0  0  0  0  0  0  0
    4.9641    3.0865   -2.7070 C   0  0  0  0  0  0  0  0  0  0  0  0
    5.4597    3.7744   -3.8096 C   0  0  0  0  0  0  0  0  0  0  0  0
    5.9441    3.0623   -4.9028 C   0  0  0  0  0  0  0  0  0  0  0  0
    5.9246    1.6665   -4.8976 C   0  0  0  0  0  0  0  0  0  0  0  0
    5.4342    0.9737   -3.7901 C   0  0  0  0  0  0  0  0  0  0  0  0
    2.8511    0.5026    1.2984 N   0  0  0  0  0  0  0  0  0  0  0  0
    4.2717    0.6607    1.6976 C   0  0  0  0  0  0  0  0  0  0  0  0
    5.0462   -0.6585    1.8536 C   0  0  0  0  0  0  0  0  0  0  0  0
    4.4016   -1.5146    2.8489 N   0  0  0  0  0  0  0  0  0  0  0  0
    5.0763   -2.3632    3.7154 C   0  0  0  0  0  0  0  0  0  0  0  0
    4.4761   -3.0760    4.5238 O   0  0  0  0  0  0  0  0  0  0  0  0
    6.5947   -2.4173    3.6505 C   0  0  0  0  0  0  0  0  0  0  0  0
    7.2923   -1.1180    4.6355 Cl  0  0  0  0  0  0  0  0  0  0  0  0
    2.9378   -1.6153    2.7424 C   0  0  0  0  0  0  0  0  0  0  0  0
    2.2519   -0.2616    2.4340 C   0  0  0  0  0  0  0  0  0  0  0  0
    0.9041   -0.8299   -1.2380 H   0  0  0  0  0  0  0  0  0  0  0  0
    0.5426    0.6223   -0.2949 H   0  0  0  0  0  0  0  0  0  0  0  0
    0.6064   -0.9772    0.4719 H   0  0  0  0  0  0  0  0  0  0  0  0
    3.0681   -1.1090   -0.0840 H   0  0  0  0  0  0  0  0  0  0  0  0
    2.5047    1.6310   -1.3521 H   0  0  0  0  0  0  0  0  0  0  0  0
    2.7678    0.1168   -2.1895 H   0  0  0  0  0  0  0  0  0  0  0  0
    5.1426    0.0614   -1.2830 H   0  0  0  0  0  0  0  0  0  0  0  0
    4.8564    1.6746   -0.6488 H   0  0  0  0  0  0  0  0  0  0  0  0
    4.6086    3.6512   -1.8464 H   0  0  0  0  0  0  0  0  0  0  0  0
    5.4848    4.8603   -3.8036 H   0  0  0  0  0  0  0  0  0  0  0  0
    6.3445    3.5959   -5.7604 H   0  0  0  0  0  0  0  0  0  0  0  0
    6.3128    1.1173   -5.7500 H   0  0  0  0  0  0  0  0  0  0  0  0
    5.4517   -0.1133   -3.7874 H   0  0  0  0  0  0  0  0  0  0  0  0
    4.2893    1.1800    2.6667 H   0  0  0  0  0  0  0  0  0  0  0  0
    4.8280    1.3504    1.0795 H   0  0  0  0  0  0  0  0  0  0  0  0
    6.0716   -0.4186    2.1489 H   0  0  0  0  0  0  0  0  0  0  0  0
    5.1011   -1.2182    0.9136 H   0  0  0  0  0  0  0  0  0  0  0  0
    6.9592   -2.3429    2.6232 H   0  0  0  0  0  0  0  0  0  0  0  0
    6.9373   -3.3758    4.0515 H   0  0  0  0  0  0  0  0  0  0  0  0
    2.5179   -2.0272    3.6662 H   0  0  0  0  0  0  0  0  0  0  0  0
    2.7300   -2.3348    1.9422 H   0  0  0  0  0  0  0  0  0  0  0  0
    2.3376    0.3695    3.3306 H   0  0  0  0  0  0  0  0  0  0  0  0
    1.1737   -0.3958    2.3193 H   0  0  0  0  0  0  0  0  0  0  0  0
  1  2  1  0  0  0  0
  1 21  1  0  0  0  0
  1 22  1  0  0  0  0
  1 23  1  0  0  0  0
  2  3  1  0  0  0  0
  2 11  1  0  0  0  0
  2 24  1  0  0  0  0
  3  4  1  0  0  0  0
  3 25  1  0  0  0  0
  3 26  1  0  0  0  0
  4  5  1  0  0  0  0
  4 27  1  0  0  0  0
  4 28  1  0  0  0  0
  5  6  1  0  0  0  0
  5 10  2  0  0  0  0
  6  7  2  0  0  0  0
  6 29  1  0  0  0  0
  7  8  1  0  0  0  0
  7 30  1  0  0  0  0
  8  9  2  0  0  0  0
  8 31  1  0  0  0  0
  9 10  1  0  0  0  0
  9 32  1  0  0  0  0
 10 33  1  0  0  0  0
 11 12  1  0  0  0  0
 11 20  1  0  0  0  0
 12 13  1  0  0  0  0
 12 34  1  0  0  0  0
 12 35  1  0  0  0  0
 13 14  1  0  0  0  0
 13 36  1  0  0  0  0
 13 37  1  0  0  0  0
 14 15  1  0  0  0  0
 14 19  1  0  0  0  0
 15 16  2  0  0  0  0
 15 17  1  0  0  0  0
 17 18  1  0  0  0  0
 17 38  1  0  0  0  0
 17 39  1  0  0  0  0
 19 20  1  0  0  0  0
 19 40  1  0  0  0  0
 19 41  1  0  0  0  0
 20 42  1  0  0  0  0
 20 43  1  0  0  0  0
M  END
$$$$
