
 OpenBabel07202414133D

 59 62  0  0  0  0  0  0  0  0999 V2000
    3.5896    2.5779   -2.6888 C   0  0  0  0  0  0  0  0  0  0  0  0
    4.4959    2.4798   -1.4705 C   0  0  0  0  0  0  0  0  0  0  0  0
    4.6102    1.0438   -0.9562 C   0  0  0  0  0  0  0  0  0  0  0  0
    5.4834    0.9434    0.2541 C   0  0  0  0  0  0  0  0  0  0  0  0
    4.9350    1.0722    1.4661 N   0  0  0  0  0  0  0  0  0  0  0  0
    5.9642    0.9031    2.3192 N   0  0  0  0  0  0  0  0  0  0  0  0
    5.7044    1.0387    3.7354 C   0  0  0  0  0  0  0  0  0  0  0  0
    7.1765    0.6799    1.7039 C   0  0  0  0  0  0  0  0  0  0  0  0
    8.4268    0.4670    2.4106 C   0  0  0  0  0  0  0  0  0  0  0  0
    8.4613   -0.0109    3.5412 O   0  0  0  0  0  0  0  0  0  0  0  0
    9.5409    0.9039    1.7141 N   0  0  0  0  0  0  0  0  0  0  0  0
   10.8976    0.8230    2.1092 C   0  0  0  0  0  0  0  0  0  0  0  0
   11.3702   -0.0273    3.1192 C   0  0  0  0  0  0  0  0  0  0  0  0
   12.7348   -0.0504    3.4813 C   0  0  0  0  0  0  0  0  0  0  0  0
   13.2163   -0.9595    4.5947 C   0  0  0  0  0  0  0  0  0  0  0  0
   14.3550   -1.9100    4.2489 C   0  0  0  0  0  0  0  0  0  0  0  0
   15.3243   -2.0306    4.9957 O   0  0  0  0  0  0  0  0  0  0  0  0
   14.1820   -2.6299    3.0791 N   0  0  0  0  0  0  0  0  0  0  0  0
   15.1282   -3.5861    2.6291 C   0  0  0  0  0  0  0  0  0  0  0  0
   15.6425   -4.5544    3.4947 C   0  0  0  0  0  0  0  0  0  0  0  0
   16.4978   -5.5338    3.1267 N   0  0  0  0  0  0  0  0  0  0  0  0
   16.8933   -5.5283    1.8315 C   0  0  0  0  0  0  0  0  0  0  0  0
   16.4724   -4.5991    0.8818 C   0  0  0  0  0  0  0  0  0  0  0  0
   16.9677   -4.6222   -0.4385 C   0  0  0  0  0  0  0  0  0  0  0  0
   16.5761   -3.6537   -1.3602 C   0  0  0  0  0  0  0  0  0  0  0  0
   15.6828   -2.6591   -0.9816 C   0  0  0  0  0  0  0  0  0  0  0  0
   15.1749   -2.6350    0.3190 C   0  0  0  0  0  0  0  0  0  0  0  0
   15.5540   -3.6029    1.2785 C   0  0  0  0  0  0  0  0  0  0  0  0
   13.6185    0.8282    2.8417 C   0  0  0  0  0  0  0  0  0  0  0  0
   13.1548    1.6572    1.8209 C   0  0  0  0  0  0  0  0  0  0  0  0
   14.2477    2.7279    1.0313 Cl  0  0  0  0  0  0  0  0  0  0  0  0
   11.8116    1.6405    1.4375 C   0  0  0  0  0  0  0  0  0  0  0  0
    6.8773    0.6975    0.3539 C   0  0  0  0  0  0  0  0  0  0  0  0
    7.7471    0.4831   -0.6588 N   0  0  0  0  0  0  0  0  0  0  0  0
    3.5415    3.6137   -3.0401 H   0  0  0  0  0  0  0  0  0  0  0  0
    2.5710    2.2552   -2.4503 H   0  0  0  0  0  0  0  0  0  0  0  0
    3.9637    1.9588   -3.5102 H   0  0  0  0  0  0  0  0  0  0  0  0
    4.1005    3.1301   -0.6804 H   0  0  0  0  0  0  0  0  0  0  0  0
    5.4893    2.8635   -1.7299 H   0  0  0  0  0  0  0  0  0  0  0  0
    4.9987    0.3920   -1.7479 H   0  0  0  0  0  0  0  0  0  0  0  0
    3.6091    0.6634   -0.7130 H   0  0  0  0  0  0  0  0  0  0  0  0
    4.6740    1.3798    3.8808 H   0  0  0  0  0  0  0  0  0  0  0  0
    6.3898    1.7826    4.1482 H   0  0  0  0  0  0  0  0  0  0  0  0
    5.8374    0.0647    4.2084 H   0  0  0  0  0  0  0  0  0  0  0  0
    9.3313    1.4696    0.8960 H   0  0  0  0  0  0  0  0  0  0  0  0
   10.6843   -0.6907    3.6405 H   0  0  0  0  0  0  0  0  0  0  0  0
   12.3939   -1.5793    4.9703 H   0  0  0  0  0  0  0  0  0  0  0  0
   13.5461   -0.3272    5.4285 H   0  0  0  0  0  0  0  0  0  0  0  0
   13.5734   -2.2193    2.3845 H   0  0  0  0  0  0  0  0  0  0  0  0
   15.3375   -4.5994    4.5382 H   0  0  0  0  0  0  0  0  0  0  0  0
   17.5989   -6.3158    1.5814 H   0  0  0  0  0  0  0  0  0  0  0  0
   17.6815   -5.3835   -0.7464 H   0  0  0  0  0  0  0  0  0  0  0  0
   16.9819   -3.6653   -2.3675 H   0  0  0  0  0  0  0  0  0  0  0  0
   15.3943   -1.8863   -1.6893 H   0  0  0  0  0  0  0  0  0  0  0  0
   14.5101   -1.8150    0.5794 H   0  0  0  0  0  0  0  0  0  0  0  0
   14.6636    0.8786    3.1447 H   0  0  0  0  0  0  0  0  0  0  0  0
   11.4811    2.3026    0.6416 H   0  0  0  0  0  0  0  0  0  0  0  0
    8.5719   -0.0898   -0.4888 H   0  0  0  0  0  0  0  0  0  0  0  0
    7.3718    0.2924   -1.5868 H   0  0  0  0  0  0  0  0  0  0  0  0
  1  2  1  0  0  0  0
  1 35  1  0  0  0  0
  1 36  1  0  0  0  0
  1 37  1  0  0  0  0
  2  3  1  0  0  0  0
  2 38  1  0  0  0  0
  2 39  1  0  0  0  0
  3  4  1  0  0  0  0
  3 40  1  0  0  0  0
  3 41  1  0  0  0  0
  4  5  2  0  0  0  0
  4 33  1  0  0  0  0
  5  6  1  0  0  0  0
  6  7  1  0  0  0  0
  6  8  1  0  0  0  0
  7 42  1  0  0  0  0
  7 43  1  0  0  0  0
  7 44  1  0  0  0  0
  8  9  1  0  0  0  0
  8 33  2  0  0  0  0
  9 10  2  0  0  0  0
  9 11  1  0  0  0  0
 11 12  1  0  0  0  0
 11 45  1  0  0  0  0
 12 13  2  0  0  0  0
 12 32  1  0  0  0  0
 13 14  1  0  0  0  0
 13 46  1  0  0  0  0
 14 15  1  0  0  0  0
 14 29  2  0  0  0  0
 15 16  1  0  0  0  0
 15 47  1  0  0  0  0
 15 48  1  0  0  0  0
 16 17  2  0  0  0  0
 16 18  1  0  0  0  0
 18 19  1  0  0  0  0
 18 49  1  0  0  0  0
 19 20  2  0  0  0  0
 19 28  1  0  0  0  0
 20 21  1  0  0  0  0
 20 50  1  0  0  0  0
 21 22  2  0  0  0  0
 22 23  1  0  0  0  0
 22 51  1  0  0  0  0
 23 24  2  0  0  0  0
 23 28  1  0  0  0  0
 24 25  1  0  0  0  0
 24 52  1  0  0  0  0
 25 26  2  0  0  0  0
 25 53  1  0  0  0  0
 26 27  1  0  0  0  0
 26 54  1  0  0  0  0
 27 28  2  0  0  0  0
 27 55  1  0  0  0  0
 29 30  1  0  0  0  0
 29 56  1  0  0  0  0
 30 31  1  0  0  0  0
 30 32  2  0  0  0  0
 32 57  1  0  0  0  0
 33 34  1  0  0  0  0
 34 58  1  0  0  0  0
 34 59  1  0  0  0  0
M  END
$$$$
