
 OpenBabel07202414173D

 57 61  0  0  1  0  0  0  0  0999 V2000
    1.0148    0.1074    0.0290 Cl  0  0  0  0  0  0  0  0  0  0  0  0
    2.7276   -0.0376    0.0975 C   0  0  0  0  0  0  0  0  0  0  0  0
    3.5235    1.0947   -0.0270 C   0  0  0  0  0  0  0  0  0  0  0  0
    4.9105    0.9650    0.0251 C   0  0  0  0  0  0  0  0  0  0  0  0
    5.4987   -0.2917    0.1976 C   0  0  0  0  0  0  0  0  0  0  0  0
    4.7070   -1.4444    0.3036 C   0  0  0  0  0  0  0  0  0  0  0  0
    3.3076   -1.2954    0.2709 C   0  0  0  0  0  0  0  0  0  0  0  0
    5.3483   -2.8218    0.4886 C   0  0  3  0  0  0  0  0  0  0  0  0
    4.7215   -3.8324   -0.5219 C   0  0  0  0  0  0  0  0  0  0  0  0
    5.4766   -5.0653   -0.5218 O   0  0  0  0  0  0  0  0  0  0  0  0
    4.9180   -6.0529   -1.3910 C   0  0  0  0  0  0  0  0  0  0  0  0
    5.1303   -5.8171   -2.8855 C   0  0  0  0  0  0  0  0  0  0  0  0
    4.3227   -6.2467   -3.6968 O   0  0  0  0  0  0  0  0  0  0  0  0
    6.3059   -5.1272   -3.1292 N   0  0  0  0  0  0  0  0  0  0  0  0
    6.6923   -4.7847   -4.3997 C   0  0  0  0  0  0  0  0  0  0  0  0
    6.1012   -5.0672   -5.5343 N   0  0  0  0  0  0  0  0  0  0  0  0
    6.8732   -4.5104   -6.5164 C   0  0  0  0  0  0  0  0  0  0  0  0
    7.9554   -3.8729   -5.9714 C   0  0  0  0  0  0  0  0  0  0  0  0
    7.8290   -4.0498   -4.6212 N   0  0  0  0  0  0  0  0  0  0  0  0
    5.1511   -3.2908    1.9816 C   0  0  0  0  0  0  0  0  0  0  0  0
    5.0977   -2.4756    2.8981 O   0  0  0  0  0  0  0  0  0  0  0  0
    5.1086   -4.6701    2.1484 N   0  0  0  0  0  0  0  0  0  0  0  0
    5.0027   -5.4134    3.3567 C   0  0  0  0  0  0  0  0  0  0  0  0
    4.9885   -4.8185    4.6159 C   0  0  0  0  0  0  0  0  0  0  0  0
    5.1450   -5.4958    5.7787 N   0  0  0  0  0  0  0  0  0  0  0  0
    5.2184   -6.8395    5.6937 C   0  0  0  0  0  0  0  0  0  0  0  0
    5.0479   -7.5644    4.5164 C   0  0  0  0  0  0  0  0  0  0  0  0
    4.9529   -8.9701    4.5312 C   0  0  0  0  0  0  0  0  0  0  0  0
    4.7511   -9.6804    3.3511 C   0  0  0  0  0  0  0  0  0  0  0  0
    4.6869   -8.9994    2.1447 C   0  0  0  0  0  0  0  0  0  0  0  0
    4.7914   -7.6050    2.1247 C   0  0  0  0  0  0  0  0  0  0  0  0
    4.9623   -6.8411    3.3053 C   0  0  0  0  0  0  0  0  0  0  0  0
    6.8567   -2.7286    0.1663 C   0  0  0  0  0  0  0  0  0  0  0  0
    7.4640   -1.4682    0.7529 C   0  0  0  0  0  0  0  0  0  0  0  0
    6.8661   -0.2944    0.2080 O   0  0  0  0  0  0  0  0  0  0  0  0
    3.0749    2.0771   -0.1585 H   0  0  0  0  0  0  0  0  0  0  0  0
    5.5381    1.8485   -0.0600 H   0  0  0  0  0  0  0  0  0  0  0  0
    2.6513   -2.1543    0.3904 H   0  0  0  0  0  0  0  0  0  0  0  0
    4.7492   -3.4108   -1.5356 H   0  0  0  0  0  0  0  0  0  0  0  0
    3.6788   -4.0588   -0.2709 H   0  0  0  0  0  0  0  0  0  0  0  0
    3.8480   -6.1643   -1.1874 H   0  0  0  0  0  0  0  0  0  0  0  0
    5.4071   -7.0023   -1.1518 H   0  0  0  0  0  0  0  0  0  0  0  0
    6.8634   -4.8451   -2.3371 H   0  0  0  0  0  0  0  0  0  0  0  0
    6.6022   -4.6037   -7.5605 H   0  0  0  0  0  0  0  0  0  0  0  0
    8.7790   -3.3254   -6.4084 H   0  0  0  0  0  0  0  0  0  0  0  0
    8.4553   -3.6961   -3.9137 H   0  0  0  0  0  0  0  0  0  0  0  0
    5.2952   -5.2194    1.3156 H   0  0  0  0  0  0  0  0  0  0  0  0
    4.8647   -3.7498    4.7560 H   0  0  0  0  0  0  0  0  0  0  0  0
    5.4149   -7.3386    6.6415 H   0  0  0  0  0  0  0  0  0  0  0  0
    4.9933   -9.5162    5.4721 H   0  0  0  0  0  0  0  0  0  0  0  0
    4.6301  -10.7605    3.3750 H   0  0  0  0  0  0  0  0  0  0  0  0
    4.5323   -9.5460    1.2173 H   0  0  0  0  0  0  0  0  0  0  0  0
    4.6828   -7.1240    1.1613 H   0  0  0  0  0  0  0  0  0  0  0  0
    6.9893   -2.6786   -0.9261 H   0  0  0  0  0  0  0  0  0  0  0  0
    7.4049   -3.6079    0.5213 H   0  0  0  0  0  0  0  0  0  0  0  0
    8.5256   -1.4292    0.4817 H   0  0  0  0  0  0  0  0  0  0  0  0
    7.4115   -1.4423    1.8461 H   0  0  0  0  0  0  0  0  0  0  0  0
  1  2  1  0  0  0  0
  2  3  1  0  0  0  0
  2  7  2  0  0  0  0
  3  4  2  0  0  0  0
  3 36  1  0  0  0  0
  4  5  1  0  0  0  0
  4 37  1  0  0  0  0
  5  6  2  0  0  0  0
  5 35  1  0  0  0  0
  6  7  1  0  0  0  0
  6  8  1  0  0  0  0
  7 38  1  0  0  0  0
  8  9  1  0  0  0  0
  8 20  1  0  0  0  0
  8 33  1  0  0  0  0
  9 10  1  0  0  0  0
  9 39  1  0  0  0  0
  9 40  1  0  0  0  0
 10 11  1  0  0  0  0
 11 12  1  0  0  0  0
 11 41  1  0  0  0  0
 11 42  1  0  0  0  0
 12 13  2  0  0  0  0
 12 14  1  0  0  0  0
 14 15  1  0  0  0  0
 14 43  1  0  0  0  0
 15 16  2  0  0  0  0
 15 19  1  0  0  0  0
 16 17  1  0  0  0  0
 17 18  2  0  0  0  0
 17 44  1  0  0  0  0
 18 19  1  0  0  0  0
 18 45  1  0  0  0  0
 19 46  1  0  0  0  0
 20 21  2  0  0  0  0
 20 22  1  0  0  0  0
 22 23  1  0  0  0  0
 22 47  1  0  0  0  0
 23 24  1  0  0  0  0
 23 32  2  0  0  0  0
 24 25  2  0  0  0  0
 24 48  1  0  0  0  0
 25 26  1  0  0  0  0
 26 27  2  0  0  0  0
 26 49  1  0  0  0  0
 27 28  1  0  0  0  0
 27 32  1  0  0  0  0
 28 29  2  0  0  0  0
 28 50  1  0  0  0  0
 29 30  1  0  0  0  0
 29 51  1  0  0  0  0
 30 31  2  0  0  0  0
 30 52  1  0  0  0  0
 31 32  1  0  0  0  0
 31 53  1  0  0  0  0
 33 34  1  0  0  0  0
 33 54  1  0  0  0  0
 33 55  1  0  0  0  0
 34 35  1  0  0  0  0
 34 56  1  0  0  0  0
 34 57  1  0  0  0  0
M  END
$$$$
