
 OpenBabel07202414143D

 71 74  0  0  1  0  0  0  0  0999 V2000
    0.9711   -3.1268   -0.9587 C   0  0  0  0  0  0  0  0  0  0  0  0
    2.3985   -3.1396   -0.7521 N   0  0  0  0  0  0  0  0  0  0  0  0
    2.9598   -2.5033    0.3329 C   0  0  0  0  0  0  0  0  0  0  0  0
    2.2989   -1.9174    1.1810 O   0  0  0  0  0  0  0  0  0  0  0  0
    4.4475   -2.5718    0.4598 C   0  0  0  0  0  0  0  0  0  0  0  0
    5.2830   -2.6923   -0.6520 C   0  0  0  0  0  0  0  0  0  0  0  0
    6.6754   -2.7238   -0.4851 C   0  0  0  0  0  0  0  0  0  0  0  0
    7.2456   -2.6326    0.7929 C   0  0  0  0  0  0  0  0  0  0  0  0
    8.7508   -2.6619    0.9671 C   0  0  0  0  0  0  0  0  0  0  0  0
    9.3918   -1.2662    0.8702 C   0  0  0  0  0  0  0  0  0  0  0  0
   10.8460   -1.2764    1.0087 N   0  0  0  0  0  0  0  0  0  0  0  0
   11.6447   -1.8157    0.0231 C   0  0  0  0  0  0  0  0  0  0  0  0
   11.1552   -2.3060   -0.9985 O   0  0  0  0  0  0  0  0  0  0  0  0
   13.1606   -1.9653    0.3205 C   0  0  3  0  0  0  0  0  0  0  0  0
   13.8867   -0.7700    0.8762 N   0  0  0  0  0  0  0  0  0  0  0  0
   14.0966   -0.5215    2.2422 C   0  0  0  0  0  0  0  0  0  0  0  0
   13.5951   -1.2150    3.1236 O   0  0  0  0  0  0  0  0  0  0  0  0
   14.9646    0.5921    2.6611 C   0  0  0  0  0  0  0  0  0  0  0  0
   15.7794    0.5709    3.7759 C   0  0  0  0  0  0  0  0  0  0  0  0
   16.4013    1.7772    3.8852 O   0  0  0  0  0  0  0  0  0  0  0  0
   15.9138    2.4880    2.8343 C   0  0  0  0  0  0  0  0  0  0  0  0
   15.0541    1.8438    2.0795 N   0  0  0  0  0  0  0  0  0  0  0  0
   14.3481    0.1540   -0.1091 C   0  0  0  0  0  0  0  0  0  0  0  0
   15.6589    0.0645   -0.5832 C   0  0  0  0  0  0  0  0  0  0  0  0
   16.1456    1.0191   -1.4919 C   0  0  0  0  0  0  0  0  0  0  0  0
   15.3136    2.0414   -1.9485 C   0  0  0  0  0  0  0  0  0  0  0  0
   15.6611    2.9966   -2.8640 O   0  0  0  0  0  0  0  0  0  0  0  0
   16.6742    2.6691   -3.8279 C   0  0  0  0  0  0  0  0  0  0  0  0
   16.2399    1.5180   -4.7351 C   0  0  0  0  0  0  0  0  0  0  0  0
   16.8971    3.9161   -4.6877 C   0  0  0  0  0  0  0  0  0  0  0  0
   14.0139    2.1404   -1.4449 C   0  0  0  0  0  0  0  0  0  0  0  0
   13.5227    1.1961   -0.5375 C   0  0  0  0  0  0  0  0  0  0  0  0
   13.4206   -3.3267    0.9691 C   0  0  0  0  0  0  0  0  0  0  0  0
   12.9030   -3.7054    2.2153 C   0  0  0  0  0  0  0  0  0  0  0  0
   13.1510   -4.9670    2.7417 C   0  0  0  0  0  0  0  0  0  0  0  0
   13.8698   -5.8633    1.9742 C   0  0  0  0  0  0  0  0  0  0  0  0
   14.3335   -5.5732    0.7403 N   0  0  0  0  0  0  0  0  0  0  0  0
   14.0942   -4.3257    0.2665 C   0  0  0  0  0  0  0  0  0  0  0  0
    6.4025   -2.5014    1.9027 C   0  0  0  0  0  0  0  0  0  0  0  0
    5.0138   -2.4647    1.7382 C   0  0  0  0  0  0  0  0  0  0  0  0
    0.7291   -3.7771   -1.8043 H   0  0  0  0  0  0  0  0  0  0  0  0
    0.6537   -2.1031   -1.1777 H   0  0  0  0  0  0  0  0  0  0  0  0
    0.4614   -3.4795   -0.0587 H   0  0  0  0  0  0  0  0  0  0  0  0
    2.9631   -3.7486   -1.3307 H   0  0  0  0  0  0  0  0  0  0  0  0
    4.8798   -2.7308   -1.6625 H   0  0  0  0  0  0  0  0  0  0  0  0
    7.3133   -2.8167   -1.3629 H   0  0  0  0  0  0  0  0  0  0  0  0
    9.1729   -3.3402    0.2147 H   0  0  0  0  0  0  0  0  0  0  0  0
    8.9994   -3.1195    1.9340 H   0  0  0  0  0  0  0  0  0  0  0  0
    9.0004   -0.6112    1.6565 H   0  0  0  0  0  0  0  0  0  0  0  0
    9.1506   -0.8081   -0.0963 H   0  0  0  0  0  0  0  0  0  0  0  0
   11.2700   -0.9482    1.8690 H   0  0  0  0  0  0  0  0  0  0  0  0
   13.5826   -2.0588   -0.6932 H   0  0  0  0  0  0  0  0  0  0  0  0
   16.0132   -0.1640    4.5329 H   0  0  0  0  0  0  0  0  0  0  0  0
   16.2710    3.5029    2.7257 H   0  0  0  0  0  0  0  0  0  0  0  0
   16.3220   -0.7195   -0.2322 H   0  0  0  0  0  0  0  0  0  0  0  0
   17.1786    0.9403   -1.8126 H   0  0  0  0  0  0  0  0  0  0  0  0
   17.6228    2.4441   -3.3236 H   0  0  0  0  0  0  0  0  0  0  0  0
   15.2756    1.7391   -5.2063 H   0  0  0  0  0  0  0  0  0  0  0  0
   16.1078    0.5879   -4.1770 H   0  0  0  0  0  0  0  0  0  0  0  0
   16.9816    1.3311   -5.5181 H   0  0  0  0  0  0  0  0  0  0  0  0
   15.9680    4.2178   -5.1862 H   0  0  0  0  0  0  0  0  0  0  0  0
   17.6595    3.7405   -5.4516 H   0  0  0  0  0  0  0  0  0  0  0  0
   17.2117    4.7644   -4.0696 H   0  0  0  0  0  0  0  0  0  0  0  0
   13.3780    2.9633   -1.7653 H   0  0  0  0  0  0  0  0  0  0  0  0
   12.5150    1.3101   -0.1480 H   0  0  0  0  0  0  0  0  0  0  0  0
   12.2952   -3.0243    2.8050 H   0  0  0  0  0  0  0  0  0  0  0  0
   12.7875   -5.2434    3.7276 H   0  0  0  0  0  0  0  0  0  0  0  0
   14.0856   -6.8617    2.3342 H   0  0  0  0  0  0  0  0  0  0  0  0
   14.4516   -4.1674   -0.7475 H   0  0  0  0  0  0  0  0  0  0  0  0
    6.8141   -2.4252    2.9058 H   0  0  0  0  0  0  0  0  0  0  0  0
    4.3691   -2.3607    2.6084 H   0  0  0  0  0  0  0  0  0  0  0  0
  1  2  1  0  0  0  0
  1 41  1  0  0  0  0
  1 42  1  0  0  0  0
  1 43  1  0  0  0  0
  2  3  1  0  0  0  0
  2 44  1  0  0  0  0
  3  4  2  0  0  0  0
  3  5  1  0  0  0  0
  5  6  1  0  0  0  0
  5 40  2  0  0  0  0
  6  7  2  0  0  0  0
  6 45  1  0  0  0  0
  7  8  1  0  0  0  0
  7 46  1  0  0  0  0
  8  9  1  0  0  0  0
  8 39  2  0  0  0  0
  9 10  1  0  0  0  0
  9 47  1  0  0  0  0
  9 48  1  0  0  0  0
 10 11  1  0  0  0  0
 10 49  1  0  0  0  0
 10 50  1  0  0  0  0
 11 12  1  0  0  0  0
 11 51  1  0  0  0  0
 12 13  2  0  0  0  0
 12 14  1  0  0  0  0
 14 15  1  0  0  0  0
 14 33  1  0  0  0  0
 14 52  1  0  0  0  0
 15 16  1  0  0  0  0
 15 23  1  0  0  0  0
 16 17  2  0  0  0  0
 16 18  1  0  0  0  0
 18 19  2  0  0  0  0
 18 22  1  0  0  0  0
 19 20  1  0  0  0  0
 19 53  1  0  0  0  0
 20 21  1  0  0  0  0
 21 22  2  0  0  0  0
 21 54  1  0  0  0  0
 23 24  1  0  0  0  0
 23 32  2  0  0  0  0
 24 25  2  0  0  0  0
 24 55  1  0  0  0  0
 25 26  1  0  0  0  0
 25 56  1  0  0  0  0
 26 27  1  0  0  0  0
 26 31  2  0  0  0  0
 27 28  1  0  0  0  0
 28 29  1  0  0  0  0
 28 30  1  0  0  0  0
 28 57  1  0  0  0  0
 29 58  1  0  0  0  0
 29 59  1  0  0  0  0
 29 60  1  0  0  0  0
 30 61  1  0  0  0  0
 30 62  1  0  0  0  0
 30 63  1  0  0  0  0
 31 32  1  0  0  0  0
 31 64  1  0  0  0  0
 32 65  1  0  0  0  0
 33 34  1  0  0  0  0
 33 38  2  0  0  0  0
 34 35  2  0  0  0  0
 34 66  1  0  0  0  0
 35 36  1  0  0  0  0
 35 67  1  0  0  0  0
 36 37  2  0  0  0  0
 36 68  1  0  0  0  0
 37 38  1  0  0  0  0
 38 69  1  0  0  0  0
 39 40  1  0  0  0  0
 39 70  1  0  0  0  0
 40 71  1  0  0  0  0
M  END
$$$$
