
 OpenBabel07202414183D

 41 44  0  0  1  0  0  0  0  0999 V2000
    1.5215   -0.3267    0.6893 F   0  0  0  0  0  0  0  0  0  0  0  0
    2.8610   -0.2964    0.6548 C   0  0  0  0  0  0  0  0  0  0  0  0
    3.5194    0.9106    0.8151 C   0  0  0  0  0  0  0  0  0  0  0  0
    4.9150    0.9508    0.7441 C   0  0  0  0  0  0  0  0  0  0  0  0
    5.6749   -0.2202    0.5019 C   0  0  0  0  0  0  0  0  0  0  0  0
    7.0792   -0.2406    0.3154 C   0  0  0  0  0  0  0  0  0  0  0  0
    7.8517    0.9431    0.4369 N   0  0  0  0  0  0  0  0  0  0  0  0
    8.8150    1.2924   -0.4989 C   0  0  0  0  0  0  0  0  0  0  0  0
    9.0393    0.6596   -1.5279 O   0  0  0  0  0  0  0  0  0  0  0  0
    9.6214    2.5441   -0.1321 C   0  0  2  0  0  0  0  0  0  0  0  0
    9.7383    3.4716   -1.3619 C   0  0  0  0  0  0  0  0  0  0  0  0
   10.1092    4.8967   -0.9613 C   0  0  0  0  0  0  0  0  0  0  0  0
   11.3677    4.9731    0.3020 S   0  0  0  0  0  0  0  0  0  0  0  0
   10.7160    5.2521    1.5653 O   0  0  0  0  0  0  0  0  0  0  0  0
   12.4551    5.7982   -0.1936 O   0  0  0  0  0  0  0  0  0  0  0  0
   11.9689    3.3052    0.4265 C   0  0  0  0  0  0  0  0  0  0  0  0
   13.3389    3.0808    0.5818 C   0  0  0  0  0  0  0  0  0  0  0  0
   13.8134    1.7709    0.6322 C   0  0  0  0  0  0  0  0  0  0  0  0
   12.9165    0.7058    0.5748 C   0  0  0  0  0  0  0  0  0  0  0  0
   13.5030   -0.9106    0.6300 Cl  0  0  0  0  0  0  0  0  0  0  0  0
   11.5471    0.9341    0.4241 C   0  0  0  0  0  0  0  0  0  0  0  0
   11.0551    2.2417    0.2927 C   0  0  0  0  0  0  0  0  0  0  0  0
    7.6883   -1.4638    0.0269 C   0  0  0  0  0  0  0  0  0  0  0  0
    7.0370   -2.6450   -0.0580 N   0  0  0  0  0  0  0  0  0  0  0  0
    5.6986   -2.6031    0.1010 C   0  0  0  0  0  0  0  0  0  0  0  0
    4.9652   -1.4401    0.3574 C   0  0  0  0  0  0  0  0  0  0  0  0
    3.5677   -1.4725    0.4470 C   0  0  0  0  0  0  0  0  0  0  0  0
    2.9464    1.8185    0.9747 H   0  0  0  0  0  0  0  0  0  0  0  0
    5.3922    1.9201    0.8434 H   0  0  0  0  0  0  0  0  0  0  0  0
    7.4761    1.6804    1.0180 H   0  0  0  0  0  0  0  0  0  0  0  0
    9.1030    3.0669    0.6816 H   0  0  0  0  0  0  0  0  0  0  0  0
    8.8086    3.4929   -1.9416 H   0  0  0  0  0  0  0  0  0  0  0  0
   10.5093    3.0891   -2.0490 H   0  0  0  0  0  0  0  0  0  0  0  0
    9.2314    5.4145   -0.5617 H   0  0  0  0  0  0  0  0  0  0  0  0
   10.4684    5.4571   -1.8304 H   0  0  0  0  0  0  0  0  0  0  0  0
   14.0391    3.9121    0.6325 H   0  0  0  0  0  0  0  0  0  0  0  0
   14.8819    1.5847    0.7056 H   0  0  0  0  0  0  0  0  0  0  0  0
   10.8890    0.0708    0.3466 H   0  0  0  0  0  0  0  0  0  0  0  0
    8.7640   -1.5428   -0.1098 H   0  0  0  0  0  0  0  0  0  0  0  0
    5.2065   -3.5691   -0.0016 H   0  0  0  0  0  0  0  0  0  0  0  0
    3.0112   -2.3950    0.3082 H   0  0  0  0  0  0  0  0  0  0  0  0
  1  2  1  0  0  0  0
  2  3  1  0  0  0  0
  2 27  2  0  0  0  0
  3  4  2  0  0  0  0
  3 28  1  0  0  0  0
  4  5  1  0  0  0  0
  4 29  1  0  0  0  0
  5  6  1  0  0  0  0
  5 26  2  0  0  0  0
  6  7  1  0  0  0  0
  6 23  2  0  0  0  0
  7  8  1  0  0  0  0
  7 30  1  0  0  0  0
  8  9  2  0  0  0  0
  8 10  1  0  0  0  0
 10 11  1  0  0  0  0
 10 22  1  0  0  0  0
 10 31  1  1  0  0  0
 11 12  1  0  0  0  0
 11 32  1  0  0  0  0
 11 33  1  0  0  0  0
 12 13  1  0  0  0  0
 12 34  1  0  0  0  0
 12 35  1  0  0  0  0
 13 14  2  0  0  0  0
 13 15  2  0  0  0  0
 13 16  1  0  0  0  0
 16 17  1  0  0  0  0
 16 22  2  0  0  0  0
 17 18  2  0  0  0  0
 17 36  1  0  0  0  0
 18 19  1  0  0  0  0
 18 37  1  0  0  0  0
 19 20  1  0  0  0  0
 19 21  2  0  0  0  0
 21 22  1  0  0  0  0
 21 38  1  0  0  0  0
 23 24  1  0  0  0  0
 23 39  1  0  0  0  0
 24 25  2  0  0  0  0
 25 26  1  0  0  0  0
 25 40  1  0  0  0  0
 26 27  1  0  0  0  0
 27 41  1  0  0  0  0
M  END
$$$$
