
 OpenBabel07202414153D

 36 38  0  0  0  0  0  0  0  0999 V2000
    9.0038    6.6881   -0.8372 C   0  0  0  0  0  0  0  0  0  0  0  0
    8.8171    5.5793   -1.7102 O   0  0  0  0  0  0  0  0  0  0  0  0
    7.5743    4.9907   -1.7071 C   0  0  0  0  0  0  0  0  0  0  0  0
    6.3903    5.6140   -1.2024 C   0  0  0  0  0  0  0  0  0  0  0  0
    5.1190    4.9883   -1.1795 C   0  0  0  0  0  0  0  0  0  0  0  0
    5.1207    3.6766   -1.6792 C   0  0  0  0  0  0  0  0  0  0  0  0
    6.3293    3.0943   -2.2113 C   0  0  0  0  0  0  0  0  0  0  0  0
    7.5868    3.6911   -2.2664 C   0  0  0  0  0  0  0  0  0  0  0  0
    6.0296    1.7985   -2.5353 C   0  0  0  0  0  0  0  0  0  0  0  0
    4.7054    1.6552   -2.2036 N   0  0  0  0  0  0  0  0  0  0  0  0
    4.1216    2.7827   -1.7500 N   0  0  0  0  0  0  0  0  0  0  0  0
    6.9039    0.8452   -3.0397 N   0  0  0  0  0  0  0  0  0  0  0  0
    6.7359   -0.5429   -2.7139 C   0  0  0  0  0  0  0  0  0  0  0  0
    5.8285   -0.8740   -1.9627 O   0  0  0  0  0  0  0  0  0  0  0  0
    7.7157   -1.5001   -3.3463 C   0  0  0  0  0  0  0  0  0  0  0  0
    9.1180   -1.4247   -2.7942 C   0  0  0  0  0  0  0  0  0  0  0  0
    9.3826   -1.7031   -1.4438 C   0  0  0  0  0  0  0  0  0  0  0  0
   10.6949   -1.6843   -0.9565 C   0  0  0  0  0  0  0  0  0  0  0  0
   11.7530   -1.3976   -1.8076 C   0  0  0  0  0  0  0  0  0  0  0  0
   11.5072   -1.1332   -3.1514 C   0  0  0  0  0  0  0  0  0  0  0  0
   10.1993   -1.1491   -3.6465 C   0  0  0  0  0  0  0  0  0  0  0  0
   12.8135   -0.7975   -4.2177 Cl  0  0  0  0  0  0  0  0  0  0  0  0
   10.0597    6.9714   -0.8807 H   0  0  0  0  0  0  0  0  0  0  0  0
    8.7717    6.4183    0.1988 H   0  0  0  0  0  0  0  0  0  0  0  0
    8.4174    7.5517   -1.1643 H   0  0  0  0  0  0  0  0  0  0  0  0
    6.4346    6.6258   -0.8005 H   0  0  0  0  0  0  0  0  0  0  0  0
    4.2351    5.4644   -0.7818 H   0  0  0  0  0  0  0  0  0  0  0  0
    8.4982    3.2331   -2.6194 H   0  0  0  0  0  0  0  0  0  0  0  0
    4.1317    0.8231   -2.2893 H   0  0  0  0  0  0  0  0  0  0  0  0
    7.7265    1.1603   -3.5388 H   0  0  0  0  0  0  0  0  0  0  0  0
    7.7111   -1.3005   -4.4242 H   0  0  0  0  0  0  0  0  0  0  0  0
    7.3351   -2.5203   -3.2191 H   0  0  0  0  0  0  0  0  0  0  0  0
    8.5793   -1.9651   -0.7562 H   0  0  0  0  0  0  0  0  0  0  0  0
   10.8876   -1.9124    0.0925 H   0  0  0  0  0  0  0  0  0  0  0  0
   12.7738   -1.3917   -1.4263 H   0  0  0  0  0  0  0  0  0  0  0  0
   10.0392   -0.9711   -4.7082 H   0  0  0  0  0  0  0  0  0  0  0  0
  1  2  1  0  0  0  0
  1 23  1  0  0  0  0
  1 24  1  0  0  0  0
  1 25  1  0  0  0  0
  2  3  1  0  0  0  0
  3  4  1  0  0  0  0
  3  8  2  0  0  0  0
  4  5  2  0  0  0  0
  4 26  1  0  0  0  0
  5  6  1  0  0  0  0
  5 27  1  0  0  0  0
  6  7  1  0  0  0  0
  6 11  2  0  0  0  0
  7  8  1  0  0  0  0
  7  9  2  0  0  0  0
  8 28  1  0  0  0  0
  9 10  1  0  0  0  0
  9 12  1  0  0  0  0
 10 11  1  0  0  0  0
 10 29  1  0  0  0  0
 12 13  1  0  0  0  0
 12 30  1  0  0  0  0
 13 14  2  0  0  0  0
 13 15  1  0  0  0  0
 15 16  1  0  0  0  0
 15 31  1  0  0  0  0
 15 32  1  0  0  0  0
 16 17  1  0  0  0  0
 16 21  2  0  0  0  0
 17 18  2  0  0  0  0
 17 33  1  0  0  0  0
 18 19  1  0  0  0  0
 18 34  1  0  0  0  0
 19 20  2  0  0  0  0
 19 35  1  0  0  0  0
 20 21  1  0  0  0  0
 20 22  1  0  0  0  0
 21 36  1  0  0  0  0
M  END
$$$$
