
 OpenBabel07202414203D

 68 72  0  0  1  0  0  0  0  0999 V2000
    5.8502    1.1320    1.9729 O   0  0  0  0  0  0  0  0  0  0  0  0
    7.0745    1.0687    2.7097 C   0  0  0  0  0  0  0  0  0  0  0  0
    7.1765   -0.1901    3.5791 C   0  0  0  0  0  0  0  0  0  0  0  0
    8.4205   -0.2441    4.1249 F   0  0  0  0  0  0  0  0  0  0  0  0
    6.3016   -0.0692    4.6144 F   0  0  0  0  0  0  0  0  0  0  0  0
    6.8858   -1.4731    2.7680 C   0  0  0  0  0  0  0  0  0  0  0  0
    7.0487   -2.7928    3.4399 N   0  0  0  0  0  0  0  0  0  0  0  0
    6.7660   -3.8924    2.4838 C   0  0  0  0  0  0  0  0  0  0  0  0
    5.2795   -4.0264    2.0971 C   0  0  0  0  0  0  0  0  0  0  0  0
    4.4540   -4.1431    3.2990 N   0  0  0  0  0  0  0  0  0  0  0  0
    3.5991   -5.1846    3.5899 C   0  0  0  0  0  0  0  0  0  0  0  0
    2.9031   -5.1804    4.6054 O   0  0  0  0  0  0  0  0  0  0  0  0
    3.6095   -6.3754    2.6338 C   0  0  0  0  0  0  0  0  0  0  0  0
    2.7394   -7.5568    3.1511 C   0  0  3  0  0  0  0  0  0  0  0  0
    1.2668   -7.0110    3.2338 C   0  0  0  0  0  0  0  0  0  0  0  0
    0.8859   -6.1194    2.4687 O   0  0  0  0  0  0  0  0  0  0  0  0
    0.4346   -7.6869    4.0945 N   0  0  0  0  0  0  0  0  0  0  0  0
   -0.8942   -7.3581    4.4603 C   0  0  0  0  0  0  0  0  0  0  0  0
   -1.6065   -6.2932    3.9075 C   0  0  0  0  0  0  0  0  0  0  0  0
   -2.7949   -5.8440    4.3771 N   0  0  0  0  0  0  0  0  0  0  0  0
   -3.3213   -6.5151    5.4212 C   0  0  0  0  0  0  0  0  0  0  0  0
   -2.7727   -7.6717    5.9751 C   0  0  0  0  0  0  0  0  0  0  0  0
   -3.4474   -8.3949    6.9765 C   0  0  0  0  0  0  0  0  0  0  0  0
   -2.9011   -9.5630    7.5045 C   0  0  0  0  0  0  0  0  0  0  0  0
   -1.6643  -10.0053    7.0604 C   0  0  0  0  0  0  0  0  0  0  0  0
   -0.9839   -9.2903    6.0735 C   0  0  0  0  0  0  0  0  0  0  0  0
   -1.5198   -8.1103    5.4935 C   0  0  0  0  0  0  0  0  0  0  0  0
    3.3238   -8.0918    4.4932 C   0  0  0  0  0  0  0  0  0  0  0  0
    4.5827   -8.9053    4.2453 C   0  0  0  0  0  0  0  0  0  0  0  0
    4.2696  -10.0878    3.5160 O   0  0  0  0  0  0  0  0  0  0  0  0
    3.5408   -9.8699    2.3794 C   0  0  0  0  0  0  0  0  0  0  0  0
    3.5456  -10.9313    1.4703 C   0  0  0  0  0  0  0  0  0  0  0  0
    2.8501  -10.8316    0.2679 C   0  0  0  0  0  0  0  0  0  0  0  0
    2.1507   -9.6662   -0.0221 C   0  0  0  0  0  0  0  0  0  0  0  0
    1.2971   -9.5299   -1.5089 Cl  0  0  0  0  0  0  0  0  0  0  0  0
    2.1299   -8.6084    0.8882 C   0  0  0  0  0  0  0  0  0  0  0  0
    2.8078   -8.7009    2.1212 C   0  0  0  0  0  0  0  0  0  0  0  0
    4.6643   -3.0868    4.2962 C   0  0  0  0  0  0  0  0  0  0  0  0
    6.1666   -2.9509    4.6232 C   0  0  0  0  0  0  0  0  0  0  0  0
    5.8271    1.9954    1.5235 H   0  0  0  0  0  0  0  0  0  0  0  0
    7.1433    1.9591    3.3423 H   0  0  0  0  0  0  0  0  0  0  0  0
    7.8984    1.0940    1.9897 H   0  0  0  0  0  0  0  0  0  0  0  0
    7.5849   -1.4710    1.9214 H   0  0  0  0  0  0  0  0  0  0  0  0
    5.8763   -1.3866    2.3551 H   0  0  0  0  0  0  0  0  0  0  0  0
    7.0874   -4.8338    2.9501 H   0  0  0  0  0  0  0  0  0  0  0  0
    7.3783   -3.7812    1.5817 H   0  0  0  0  0  0  0  0  0  0  0  0
    5.1526   -4.8757    1.4240 H   0  0  0  0  0  0  0  0  0  0  0  0
    4.9279   -3.1460    1.5483 H   0  0  0  0  0  0  0  0  0  0  0  0
    4.6470   -6.7026    2.5020 H   0  0  0  0  0  0  0  0  0  0  0  0
    3.2527   -6.0244    1.6568 H   0  0  0  0  0  0  0  0  0  0  0  0
    0.8596   -8.4026    4.6528 H   0  0  0  0  0  0  0  0  0  0  0  0
   -1.2522   -5.7364    3.0463 H   0  0  0  0  0  0  0  0  0  0  0  0
   -4.2392   -6.0821    5.8123 H   0  0  0  0  0  0  0  0  0  0  0  0
   -4.4226   -8.0660    7.3305 H   0  0  0  0  0  0  0  0  0  0  0  0
   -3.4457  -10.1337    8.2515 H   0  0  0  0  0  0  0  0  0  0  0  0
   -1.2279  -10.9152    7.4651 H   0  0  0  0  0  0  0  0  0  0  0  0
   -0.0367   -9.7068    5.7461 H   0  0  0  0  0  0  0  0  0  0  0  0
    2.6252   -8.7629    5.0000 H   0  0  0  0  0  0  0  0  0  0  0  0
    3.5463   -7.2977    5.2089 H   0  0  0  0  0  0  0  0  0  0  0  0
    5.0078   -9.2214    5.2042 H   0  0  0  0  0  0  0  0  0  0  0  0
    5.3682   -8.3473    3.7243 H   0  0  0  0  0  0  0  0  0  0  0  0
    4.1012  -11.8374    1.7008 H   0  0  0  0  0  0  0  0  0  0  0  0
    2.8615  -11.6601   -0.4343 H   0  0  0  0  0  0  0  0  0  0  0  0
    1.5657   -7.7132    0.6298 H   0  0  0  0  0  0  0  0  0  0  0  0
    4.1198   -3.3034    5.2215 H   0  0  0  0  0  0  0  0  0  0  0  0
    4.2589   -2.1547    3.8887 H   0  0  0  0  0  0  0  0  0  0  0  0
    6.4837   -3.8664    5.1423 H   0  0  0  0  0  0  0  0  0  0  0  0
    6.3282   -2.1521    5.3521 H   0  0  0  0  0  0  0  0  0  0  0  0
  1  2  1  0  0  0  0
  1 40  1  0  0  0  0
  2  3  1  0  0  0  0
  2 41  1  0  0  0  0
  2 42  1  0  0  0  0
  3  4  1  0  0  0  0
  3  5  1  0  0  0  0
  3  6  1  0  0  0  0
  6  7  1  0  0  0  0
  6 43  1  0  0  0  0
  6 44  1  0  0  0  0
  7  8  1  0  0  0  0
  7 39  1  0  0  0  0
  8  9  1  0  0  0  0
  8 45  1  0  0  0  0
  8 46  1  0  0  0  0
  9 10  1  0  0  0  0
  9 47  1  0  0  0  0
  9 48  1  0  0  0  0
 10 11  1  0  0  0  0
 10 38  1  0  0  0  0
 11 12  2  0  0  0  0
 11 13  1  0  0  0  0
 13 14  1  0  0  0  0
 13 49  1  0  0  0  0
 13 50  1  0  0  0  0
 14 15  1  0  0  0  0
 14 28  1  0  0  0  0
 14 37  1  0  0  0  0
 15 16  2  0  0  0  0
 15 17  1  0  0  0  0
 17 18  1  0  0  0  0
 17 51  1  0  0  0  0
 18 19  1  0  0  0  0
 18 27  2  0  0  0  0
 19 20  2  0  0  0  0
 19 52  1  0  0  0  0
 20 21  1  0  0  0  0
 21 22  2  0  0  0  0
 21 53  1  0  0  0  0
 22 23  1  0  0  0  0
 22 27  1  0  0  0  0
 23 24  2  0  0  0  0
 23 54  1  0  0  0  0
 24 25  1  0  0  0  0
 24 55  1  0  0  0  0
 25 26  2  0  0  0  0
 25 56  1  0  0  0  0
 26 27  1  0  0  0  0
 26 57  1  0  0  0  0
 28 29  1  0  0  0  0
 28 58  1  0  0  0  0
 28 59  1  0  0  0  0
 29 30  1  0  0  0  0
 29 60  1  0  0  0  0
 29 61  1  0  0  0  0
 30 31  1  0  0  0  0
 31 32  1  0  0  0  0
 31 37  2  0  0  0  0
 32 33  2  0  0  0  0
 32 62  1  0  0  0  0
 33 34  1  0  0  0  0
 33 63  1  0  0  0  0
 34 35  1  0  0  0  0
 34 36  2  0  0  0  0
 36 37  1  0  0  0  0
 36 64  1  0  0  0  0
 38 39  1  0  0  0  0
 38 65  1  0  0  0  0
 38 66  1  0  0  0  0
 39 67  1  0  0  0  0
 39 68  1  0  0  0  0
M  END
$$$$
