
 OpenBabel07202414143D

 61 65  0  0  0  0  0  0  0  0999 V2000
    5.1337   -2.6519   -1.6451 C   0  0  0  0  0  0  0  0  0  0  0  0
    5.6628   -1.6784   -2.5378 O   0  0  0  0  0  0  0  0  0  0  0  0
    5.7699   -0.3998   -2.0487 C   0  0  0  0  0  0  0  0  0  0  0  0
    5.5743    0.5860   -3.0262 C   0  0  0  0  0  0  0  0  0  0  0  0
    5.6920    1.9395   -2.7044 C   0  0  0  0  0  0  0  0  0  0  0  0
    5.9949    2.3244   -1.3945 C   0  0  0  0  0  0  0  0  0  0  0  0
    6.0618    3.7958   -1.0377 C   0  0  0  0  0  0  0  0  0  0  0  0
    6.5932    4.6348   -2.1265 N   0  0  0  0  0  0  0  0  0  0  0  0
    7.4054    5.7279   -1.8175 C   0  0  0  0  0  0  0  0  0  0  0  0
    8.3476    6.2273   -2.7336 C   0  0  0  0  0  0  0  0  0  0  0  0
    9.1733    7.3335   -2.4606 C   0  0  0  0  0  0  0  0  0  0  0  0
   10.1496    7.8059   -3.5102 C   0  0  0  0  0  0  0  0  0  0  0  0
    9.5041    8.1344   -4.8482 C   0  0  0  0  0  0  0  0  0  0  0  0
   10.0002    7.7386   -5.9013 O   0  0  0  0  0  0  0  0  0  0  0  0
    8.4059    8.9720   -4.7676 N   0  0  0  0  0  0  0  0  0  0  0  0
    7.6761    9.4109   -5.8969 C   0  0  0  0  0  0  0  0  0  0  0  0
    7.4053    8.5496   -6.9628 C   0  0  0  0  0  0  0  0  0  0  0  0
    6.6857    8.8858   -8.0589 N   0  0  0  0  0  0  0  0  0  0  0  0
    6.2498   10.1649   -8.1135 C   0  0  0  0  0  0  0  0  0  0  0  0
    6.4722   11.1237   -7.1210 C   0  0  0  0  0  0  0  0  0  0  0  0
    6.0239   12.4468   -7.2734 C   0  0  0  0  0  0  0  0  0  0  0  0
    6.2995   13.4075   -6.3012 C   0  0  0  0  0  0  0  0  0  0  0  0
    7.0115   13.0510   -5.1620 C   0  0  0  0  0  0  0  0  0  0  0  0
    7.4455   11.7372   -4.9945 C   0  0  0  0  0  0  0  0  0  0  0  0
    7.1881   10.7390   -5.9707 C   0  0  0  0  0  0  0  0  0  0  0  0
    9.0833    7.9533   -1.2159 C   0  0  0  0  0  0  0  0  0  0  0  0
    8.1531    7.4886   -0.2915 C   0  0  0  0  0  0  0  0  0  0  0  0
    8.0248    8.2655    1.2408 Cl  0  0  0  0  0  0  0  0  0  0  0  0
    7.3184    6.4053   -0.5908 C   0  0  0  0  0  0  0  0  0  0  0  0
    6.6003    4.0884   -3.4978 C   0  0  0  0  0  0  0  0  0  0  0  0
    5.5233    3.0260   -3.7257 C   0  0  0  0  0  0  0  0  0  0  0  0
    6.1963    1.3371   -0.4178 C   0  0  0  0  0  0  0  0  0  0  0  0
    6.1087   -0.0264   -0.7357 C   0  0  0  0  0  0  0  0  0  0  0  0
    6.3660   -1.0254    0.1647 O   0  0  0  0  0  0  0  0  0  0  0  0
    6.7805   -0.6657    1.4745 C   0  0  0  0  0  0  0  0  0  0  0  0
    4.8271   -3.5158   -2.2428 H   0  0  0  0  0  0  0  0  0  0  0  0
    4.2484   -2.2815   -1.1168 H   0  0  0  0  0  0  0  0  0  0  0  0
    5.8978   -3.0105   -0.9502 H   0  0  0  0  0  0  0  0  0  0  0  0
    5.3397    0.2826   -4.0443 H   0  0  0  0  0  0  0  0  0  0  0  0
    6.6808    3.8869   -0.1371 H   0  0  0  0  0  0  0  0  0  0  0  0
    5.0494    4.1378   -0.7877 H   0  0  0  0  0  0  0  0  0  0  0  0
    8.4744    5.7438   -3.6996 H   0  0  0  0  0  0  0  0  0  0  0  0
   10.8839    7.0069   -3.6745 H   0  0  0  0  0  0  0  0  0  0  0  0
   10.7013    8.6904   -3.1720 H   0  0  0  0  0  0  0  0  0  0  0  0
    8.2545    9.4585   -3.8947 H   0  0  0  0  0  0  0  0  0  0  0  0
    7.7353    7.5140   -6.9542 H   0  0  0  0  0  0  0  0  0  0  0  0
    5.6961   10.4043   -9.0181 H   0  0  0  0  0  0  0  0  0  0  0  0
    5.4792   12.7491   -8.1676 H   0  0  0  0  0  0  0  0  0  0  0  0
    5.9727   14.4348   -6.4384 H   0  0  0  0  0  0  0  0  0  0  0  0
    7.2471   13.7993   -4.4100 H   0  0  0  0  0  0  0  0  0  0  0  0
    8.0277   11.5136   -4.1035 H   0  0  0  0  0  0  0  0  0  0  0  0
    9.7291    8.7902   -0.9621 H   0  0  0  0  0  0  0  0  0  0  0  0
    6.5858    6.1061    0.1526 H   0  0  0  0  0  0  0  0  0  0  0  0
    7.5843    3.6454   -3.7043 H   0  0  0  0  0  0  0  0  0  0  0  0
    6.4287    4.8941   -4.2226 H   0  0  0  0  0  0  0  0  0  0  0  0
    5.6245    2.6257   -4.7413 H   0  0  0  0  0  0  0  0  0  0  0  0
    4.5207    3.4596   -3.6318 H   0  0  0  0  0  0  0  0  0  0  0  0
    6.4444    1.6616    0.5870 H   0  0  0  0  0  0  0  0  0  0  0  0
    6.9464   -1.5907    2.0347 H   0  0  0  0  0  0  0  0  0  0  0  0
    6.0002   -0.0999    1.9926 H   0  0  0  0  0  0  0  0  0  0  0  0
    7.7271   -0.1148    1.4544 H   0  0  0  0  0  0  0  0  0  0  0  0
  1  2  1  0  0  0  0
  1 36  1  0  0  0  0
  1 37  1  0  0  0  0
  1 38  1  0  0  0  0
  2  3  1  0  0  0  0
  3  4  2  0  0  0  0
  3 33  1  0  0  0  0
  4  5  1  0  0  0  0
  4 39  1  0  0  0  0
  5  6  2  0  0  0  0
  5 31  1  0  0  0  0
  6  7  1  0  0  0  0
  6 32  1  0  0  0  0
  7  8  1  0  0  0  0
  7 40  1  0  0  0  0
  7 41  1  0  0  0  0
  8  9  1  0  0  0  0
  8 30  1  0  0  0  0
  9 10  2  0  0  0  0
  9 29  1  0  0  0  0
 10 11  1  0  0  0  0
 10 42  1  0  0  0  0
 11 12  1  0  0  0  0
 11 26  2  0  0  0  0
 12 13  1  0  0  0  0
 12 43  1  0  0  0  0
 12 44  1  0  0  0  0
 13 14  2  0  0  0  0
 13 15  1  0  0  0  0
 15 16  1  0  0  0  0
 15 45  1  0  0  0  0
 16 17  2  0  0  0  0
 16 25  1  0  0  0  0
 17 18  1  0  0  0  0
 17 46  1  0  0  0  0
 18 19  2  0  0  0  0
 19 20  1  0  0  0  0
 19 47  1  0  0  0  0
 20 21  2  0  0  0  0
 20 25  1  0  0  0  0
 21 22  1  0  0  0  0
 21 48  1  0  0  0  0
 22 23  2  0  0  0  0
 22 49  1  0  0  0  0
 23 24  1  0  0  0  0
 23 50  1  0  0  0  0
 24 25  2  0  0  0  0
 24 51  1  0  0  0  0
 26 27  1  0  0  0  0
 26 52  1  0  0  0  0
 27 28  1  0  0  0  0
 27 29  2  0  0  0  0
 29 53  1  0  0  0  0
 30 31  1  0  0  0  0
 30 54  1  0  0  0  0
 30 55  1  0  0  0  0
 31 56  1  0  0  0  0
 31 57  1  0  0  0  0
 32 33  2  0  0  0  0
 32 58  1  0  0  0  0
 33 34  1  0  0  0  0
 34 35  1  0  0  0  0
 35 59  1  0  0  0  0
 35 60  1  0  0  0  0
 35 61  1  0  0  0  0
M  END
$$$$
