
 OpenBabel07202414163D

 36 38  0  0  0  0  0  0  0  0999 V2000
    2.0870   -0.1273   -2.2246 C   0  0  0  0  0  0  0  0  0  0  0  0
    0.7086   -0.0235   -1.6443 C   0  0  0  0  0  0  0  0  0  0  0  0
    0.0471    1.2076   -1.5718 C   0  0  0  0  0  0  0  0  0  0  0  0
   -1.2303    1.3023   -1.0066 C   0  0  0  0  0  0  0  0  0  0  0  0
   -1.8553    0.1632   -0.5117 C   0  0  0  0  0  0  0  0  0  0  0  0
   -1.2039   -1.0696   -0.5972 C   0  0  0  0  0  0  0  0  0  0  0  0
    0.0701   -1.1666   -1.1565 C   0  0  0  0  0  0  0  0  0  0  0  0
   -3.0687    0.1090    0.0987 O   0  0  0  0  0  0  0  0  0  0  0  0
   -3.9260    1.2578    0.0864 C   0  0  0  0  0  0  0  0  0  0  0  0
   -5.3271    0.6617    0.0218 C   0  0  0  0  0  0  0  0  0  0  0  0
   -6.4913    1.5567   -0.0568 N   0  0  0  0  0  0  0  0  0  0  0  0
   -7.6972    0.8075   -0.1816 C   0  0  0  0  0  0  0  0  0  0  0  0
   -8.2560    0.9487   -1.4488 C   0  0  0  0  0  0  0  0  0  0  0  0
   -9.1890    0.0651   -1.9578 C   0  0  0  0  0  0  0  0  0  0  0  0
   -9.6467   -0.9422   -1.1031 C   0  0  0  0  0  0  0  0  0  0  0  0
   -9.1982   -1.0093    0.2302 C   0  0  0  0  0  0  0  0  0  0  0  0
   -8.2225   -0.1295    0.7012 C   0  0  0  0  0  0  0  0  0  0  0  0
   -7.7371   -0.2175    2.3505 Cl  0  0  0  0  0  0  0  0  0  0  0  0
   -7.5350    2.0232   -2.1188 C   0  0  0  0  0  0  0  0  0  0  0  0
   -7.6956    2.4126   -3.2525 O   0  0  0  0  0  0  0  0  0  0  0  0
   -6.4393    2.4696   -1.1257 C   0  0  0  0  0  0  0  0  0  0  0  0
   -5.6455    3.3591   -1.3251 O   0  0  0  0  0  0  0  0  0  0  0  0
    2.4600    0.8497   -2.5481 H   0  0  0  0  0  0  0  0  0  0  0  0
    2.0810   -0.7921   -3.0937 H   0  0  0  0  0  0  0  0  0  0  0  0
    2.7815   -0.5198   -1.4746 H   0  0  0  0  0  0  0  0  0  0  0  0
    0.5220    2.1102   -1.9468 H   0  0  0  0  0  0  0  0  0  0  0  0
   -1.6938    2.2814   -0.9581 H   0  0  0  0  0  0  0  0  0  0  0  0
   -1.6912   -1.9651   -0.2184 H   0  0  0  0  0  0  0  0  0  0  0  0
    0.5621   -2.1352   -1.1992 H   0  0  0  0  0  0  0  0  0  0  0  0
   -3.7535    1.8990   -0.7801 H   0  0  0  0  0  0  0  0  0  0  0  0
   -3.7809    1.8235    1.0109 H   0  0  0  0  0  0  0  0  0  0  0  0
   -5.4461   -0.0380    0.8539 H   0  0  0  0  0  0  0  0  0  0  0  0
   -5.3547    0.0461   -0.8931 H   0  0  0  0  0  0  0  0  0  0  0  0
   -9.5035    0.1188   -2.9958 H   0  0  0  0  0  0  0  0  0  0  0  0
  -10.3499   -1.6855   -1.4725 H   0  0  0  0  0  0  0  0  0  0  0  0
   -9.6060   -1.7767    0.8886 H   0  0  0  0  0  0  0  0  0  0  0  0
  1  2  1  0  0  0  0
  1 23  1  0  0  0  0
  1 24  1  0  0  0  0
  1 25  1  0  0  0  0
  2  3  1  0  0  0  0
  2  7  2  0  0  0  0
  3  4  2  0  0  0  0
  3 26  1  0  0  0  0
  4  5  1  0  0  0  0
  4 27  1  0  0  0  0
  5  6  2  0  0  0  0
  5  8  1  0  0  0  0
  6  7  1  0  0  0  0
  6 28  1  0  0  0  0
  7 29  1  0  0  0  0
  8  9  1  0  0  0  0
  9 10  1  0  0  0  0
  9 30  1  0  0  0  0
  9 31  1  0  0  0  0
 10 11  1  0  0  0  0
 10 32  1  0  0  0  0
 10 33  1  0  0  0  0
 11 12  1  0  0  0  0
 11 21  1  0  0  0  0
 12 13  1  0  0  0  0
 12 17  2  0  0  0  0
 13 14  2  0  0  0  0
 13 19  1  0  0  0  0
 14 15  1  0  0  0  0
 14 34  1  0  0  0  0
 15 16  2  0  0  0  0
 15 35  1  0  0  0  0
 16 17  1  0  0  0  0
 16 36  1  0  0  0  0
 17 18  1  0  0  0  0
 19 20  2  0  0  0  0
 19 21  1  0  0  0  0
 21 22  2  0  0  0  0
M  END
$$$$
