
 OpenBabel07202414173D

 37 39  0  0  1  0  0  0  0  0999 V2000
    0.9770   -0.2839    0.5619 Cl  0  0  0  0  0  0  0  0  0  0  0  0
    2.7292   -0.5310    0.6634 C   0  0  0  0  0  0  0  0  0  0  0  0
    3.2733   -1.2960   -0.5360 C   0  0  0  0  0  0  0  0  0  0  0  0
    2.5550   -1.7312   -1.4404 O   0  0  0  0  0  0  0  0  0  0  0  0
    4.6581   -1.4903   -0.5518 N   0  0  0  0  0  0  0  0  0  0  0  0
    5.5377   -1.0087    0.5174 C   0  0  0  0  0  0  0  0  0  0  0  0
    7.0530   -1.0852    0.2152 C   0  0  3  0  0  0  0  0  0  0  0  0
    7.8534   -0.6542    1.4411 C   0  0  0  0  0  0  0  0  0  0  0  0
    7.7339   -1.3409    2.6628 C   0  0  0  0  0  0  0  0  0  0  0  0
    8.5542   -1.0226    3.7439 C   0  0  0  0  0  0  0  0  0  0  0  0
    9.4985   -0.0073    3.6232 C   0  0  0  0  0  0  0  0  0  0  0  0
    9.6208    0.6981    2.4233 C   0  0  0  0  0  0  0  0  0  0  0  0
   10.6049    1.7272    2.2933 C   0  0  0  0  0  0  0  0  0  0  0  0
   11.4079    2.5649    2.1834 N   0  0  0  0  0  0  0  0  0  0  0  0
    8.7982    0.3768    1.3346 C   0  0  0  0  0  0  0  0  0  0  0  0
    7.3962   -2.4803   -0.2862 C   0  0  0  0  0  0  0  0  0  0  0  0
    8.6132   -3.1217   -0.0017 C   0  0  0  0  0  0  0  0  0  0  0  0
    8.8503   -4.4235   -0.4363 C   0  0  0  0  0  0  0  0  0  0  0  0
    7.8932   -5.0865   -1.1978 C   0  0  0  0  0  0  0  0  0  0  0  0
    6.7068   -4.4395   -1.5420 C   0  0  0  0  0  0  0  0  0  0  0  0
    6.4477   -3.1371   -1.0928 C   0  0  0  0  0  0  0  0  0  0  0  0
    5.2098   -2.4039   -1.5527 C   0  0  0  0  0  0  0  0  0  0  0  0
    2.9371   -1.0668    1.5956 H   0  0  0  0  0  0  0  0  0  0  0  0
    3.1914    0.4566    0.6848 H   0  0  0  0  0  0  0  0  0  0  0  0
    5.2779   -1.6281    1.3848 H   0  0  0  0  0  0  0  0  0  0  0  0
    5.2710    0.0221    0.7780 H   0  0  0  0  0  0  0  0  0  0  0  0
    7.2661   -0.3932   -0.6118 H   0  0  0  0  0  0  0  0  0  0  0  0
    7.0343   -2.1699    2.7666 H   0  0  0  0  0  0  0  0  0  0  0  0
    8.4728   -1.5883    4.6697 H   0  0  0  0  0  0  0  0  0  0  0  0
   10.1483    0.2208    4.4673 H   0  0  0  0  0  0  0  0  0  0  0  0
    8.9203    0.9117    0.3930 H   0  0  0  0  0  0  0  0  0  0  0  0
    9.3902   -2.6266    0.5779 H   0  0  0  0  0  0  0  0  0  0  0  0
    9.7821   -4.9201   -0.1774 H   0  0  0  0  0  0  0  0  0  0  0  0
    8.0788   -6.1022   -1.5371 H   0  0  0  0  0  0  0  0  0  0  0  0
    5.9849   -4.9583   -2.1701 H   0  0  0  0  0  0  0  0  0  0  0  0
    4.4405   -3.1216   -1.8642 H   0  0  0  0  0  0  0  0  0  0  0  0
    5.4781   -1.8044   -2.4312 H   0  0  0  0  0  0  0  0  0  0  0  0
  1  2  1  0  0  0  0
  2  3  1  0  0  0  0
  2 23  1  0  0  0  0
  2 24  1  0  0  0  0
  3  4  2  0  0  0  0
  3  5  1  0  0  0  0
  5  6  1  0  0  0  0
  5 22  1  0  0  0  0
  6  7  1  0  0  0  0
  6 25  1  0  0  0  0
  6 26  1  0  0  0  0
  7  8  1  0  0  0  0
  7 16  1  0  0  0  0
  7 27  1  0  0  0  0
  8  9  1  0  0  0  0
  8 15  2  0  0  0  0
  9 10  2  0  0  0  0
  9 28  1  0  0  0  0
 10 11  1  0  0  0  0
 10 29  1  0  0  0  0
 11 12  2  0  0  0  0
 11 30  1  0  0  0  0
 12 13  1  0  0  0  0
 12 15  1  0  0  0  0
 13 14  3  0  0  0  0
 15 31  1  0  0  0  0
 16 17  1  0  0  0  0
 16 21  2  0  0  0  0
 17 18  2  0  0  0  0
 17 32  1  0  0  0  0
 18 19  1  0  0  0  0
 18 33  1  0  0  0  0
 19 20  2  0  0  0  0
 19 34  1  0  0  0  0
 20 21  1  0  0  0  0
 20 35  1  0  0  0  0
 21 22  1  0  0  0  0
 22 36  1  0  0  0  0
 22 37  1  0  0  0  0
M  END
$$$$
