
 OpenBabel07202414163D

 45 48  0  0  0  0  0  0  0  0999 V2000
   -2.0218   -0.2374    0.7614 Cl  0  0  0  0  0  0  0  0  0  0  0  0
   -0.3683   -0.1085    0.2956 C   0  0  0  0  0  0  0  0  0  0  0  0
    0.2406    1.1503    0.2474 C   0  0  0  0  0  0  0  0  0  0  0  0
    1.5850    1.2615   -0.1267 C   0  0  0  0  0  0  0  0  0  0  0  0
    2.3280    2.5802   -0.1397 C   0  0  0  0  0  0  0  0  0  0  0  0
    1.4917    3.8315   -0.3343 C   0  0  0  0  0  0  0  0  0  0  0  0
    1.2158    4.5694    0.6077 O   0  0  0  0  0  0  0  0  0  0  0  0
    1.0689    4.0261   -1.6384 N   0  0  0  0  0  0  0  0  0  0  0  0
    0.3108    5.1559   -2.0392 C   0  0  0  0  0  0  0  0  0  0  0  0
    0.6276    6.4363   -1.5789 C   0  0  0  0  0  0  0  0  0  0  0  0
   -0.0153    7.5654   -1.9544 N   0  0  0  0  0  0  0  0  0  0  0  0
   -1.0523    7.4081   -2.8037 C   0  0  0  0  0  0  0  0  0  0  0  0
   -1.4838    6.1818   -3.3132 C   0  0  0  0  0  0  0  0  0  0  0  0
   -2.6064    6.0907   -4.1550 C   0  0  0  0  0  0  0  0  0  0  0  0
   -3.0513    4.8532   -4.6148 C   0  0  0  0  0  0  0  0  0  0  0  0
   -2.3762    3.6963   -4.2485 C   0  0  0  0  0  0  0  0  0  0  0  0
   -1.2514    3.7753   -3.4245 C   0  0  0  0  0  0  0  0  0  0  0  0
   -0.7768    5.0159   -2.9363 C   0  0  0  0  0  0  0  0  0  0  0  0
    2.2990    0.0830   -0.4129 C   0  0  0  0  0  0  0  0  0  0  0  0
    1.6869   -1.1783   -0.3905 C   0  0  0  0  0  0  0  0  0  0  0  0
    2.4838   -2.3268   -0.6225 N   0  0  0  0  0  0  0  0  0  0  0  0
    2.0491   -3.5573   -1.1858 C   0  0  0  0  0  0  0  0  0  0  0  0
    2.5620   -4.7916   -0.7625 C   0  0  0  0  0  0  0  0  0  0  0  0
    3.8992   -4.9642    0.8282 I   0  0  0  0  0  0  0  0  0  0  0  0
    2.1368   -5.9467   -1.4088 C   0  0  0  0  0  0  0  0  0  0  0  0
    1.2572   -5.9583   -2.4370 N   0  0  0  0  0  0  0  0  0  0  0  0
    0.7873   -4.7613   -2.8404 C   0  0  0  0  0  0  0  0  0  0  0  0
    1.1531   -3.5567   -2.2618 C   0  0  0  0  0  0  0  0  0  0  0  0
    0.3451   -1.2671   -0.0130 C   0  0  0  0  0  0  0  0  0  0  0  0
   -0.3420    2.0265    0.5231 H   0  0  0  0  0  0  0  0  0  0  0  0
    3.0831    2.5680   -0.9365 H   0  0  0  0  0  0  0  0  0  0  0  0
    2.8661    2.6852    0.8098 H   0  0  0  0  0  0  0  0  0  0  0  0
    1.0344    3.2060   -2.2288 H   0  0  0  0  0  0  0  0  0  0  0  0
    1.4604    6.6062   -0.9014 H   0  0  0  0  0  0  0  0  0  0  0  0
   -1.5606    8.3347   -3.0620 H   0  0  0  0  0  0  0  0  0  0  0  0
   -3.1556    6.9858   -4.4379 H   0  0  0  0  0  0  0  0  0  0  0  0
   -3.9343    4.7921   -5.2456 H   0  0  0  0  0  0  0  0  0  0  0  0
   -2.7329    2.7267   -4.5869 H   0  0  0  0  0  0  0  0  0  0  0  0
   -0.7797    2.8395   -3.1388 H   0  0  0  0  0  0  0  0  0  0  0  0
    3.3585    0.1450   -0.6664 H   0  0  0  0  0  0  0  0  0  0  0  0
    3.0783   -2.4982    0.1906 H   0  0  0  0  0  0  0  0  0  0  0  0
    2.4948   -6.9313   -1.1185 H   0  0  0  0  0  0  0  0  0  0  0  0
    0.0922   -4.7906   -3.6752 H   0  0  0  0  0  0  0  0  0  0  0  0
    0.7513   -2.6298   -2.6576 H   0  0  0  0  0  0  0  0  0  0  0  0
   -0.1413   -2.2359    0.0718 H   0  0  0  0  0  0  0  0  0  0  0  0
  1  2  1  0  0  0  0
  2  3  2  0  0  0  0
  2 29  1  0  0  0  0
  3  4  1  0  0  0  0
  3 30  1  0  0  0  0
  4  5  1  0  0  0  0
  4 19  2  0  0  0  0
  5  6  1  0  0  0  0
  5 31  1  0  0  0  0
  5 32  1  0  0  0  0
  6  7  2  0  0  0  0
  6  8  1  0  0  0  0
  8  9  1  0  0  0  0
  8 33  1  0  0  0  0
  9 10  2  0  0  0  0
  9 18  1  0  0  0  0
 10 11  1  0  0  0  0
 10 34  1  0  0  0  0
 11 12  2  0  0  0  0
 12 13  1  0  0  0  0
 12 35  1  0  0  0  0
 13 14  2  0  0  0  0
 13 18  1  0  0  0  0
 14 15  1  0  0  0  0
 14 36  1  0  0  0  0
 15 16  2  0  0  0  0
 15 37  1  0  0  0  0
 16 17  1  0  0  0  0
 16 38  1  0  0  0  0
 17 18  2  0  0  0  0
 17 39  1  0  0  0  0
 19 20  1  0  0  0  0
 19 40  1  0  0  0  0
 20 21  1  0  0  0  0
 20 29  2  0  0  0  0
 21 22  1  0  0  0  0
 21 41  1  0  0  0  0
 22 23  2  0  0  0  0
 22 28  1  0  0  0  0
 23 24  1  0  0  0  0
 23 25  1  0  0  0  0
 25 26  2  0  0  0  0
 25 42  1  0  0  0  0
 26 27  1  0  0  0  0
 27 28  2  0  0  0  0
 27 43  1  0  0  0  0
 28 44  1  0  0  0  0
 29 45  1  0  0  0  0
M  END
$$$$
