
 OpenBabel07202414173D

 54 58  0  0  1  0  0  0  0  0999 V2000
    0.8707    0.0571   -0.0679 Cl  0  0  0  0  0  0  0  0  0  0  0  0
    2.5811    0.0136    0.1162 C   0  0  0  0  0  0  0  0  0  0  0  0
    3.3221    1.1861    0.0039 C   0  0  0  0  0  0  0  0  0  0  0  0
    4.7133    1.1459    0.1271 C   0  0  0  0  0  0  0  0  0  0  0  0
    5.3808   -0.0689    0.3635 C   0  0  0  0  0  0  0  0  0  0  0  0
    4.6219   -1.2527    0.4699 C   0  0  0  0  0  0  0  0  0  0  0  0
    3.2205   -1.2002    0.3521 C   0  0  0  0  0  0  0  0  0  0  0  0
    5.3125   -2.5939    0.6783 C   0  0  3  0  0  0  0  0  0  0  0  0
    5.2551   -3.0482    2.1622 C   0  0  0  0  0  0  0  0  0  0  0  0
    4.3403   -2.6874    2.8953 O   0  0  0  0  0  0  0  0  0  0  0  0
    6.2287   -3.9611    2.5425 N   0  0  0  0  0  0  0  0  0  0  0  0
    6.4447   -4.5015    3.8441 C   0  0  0  0  0  0  0  0  0  0  0  0
    5.6001   -4.2620    4.9266 C   0  0  0  0  0  0  0  0  0  0  0  0
    5.9123   -4.5394    6.2153 N   0  0  0  0  0  0  0  0  0  0  0  0
    7.0918   -5.1537    6.4309 C   0  0  0  0  0  0  0  0  0  0  0  0
    7.9332   -5.6162    5.4217 C   0  0  0  0  0  0  0  0  0  0  0  0
    9.0612   -6.4022    5.7231 C   0  0  0  0  0  0  0  0  0  0  0  0
    9.8922   -6.8691    4.7088 C   0  0  0  0  0  0  0  0  0  0  0  0
    9.6196   -6.5343    3.3902 C   0  0  0  0  0  0  0  0  0  0  0  0
    8.5008   -5.7548    3.0821 C   0  0  0  0  0  0  0  0  0  0  0  0
    7.6166   -5.2787    4.0860 C   0  0  0  0  0  0  0  0  0  0  0  0
    6.6933   -2.5033    0.0157 C   0  0  0  0  0  0  0  0  0  0  0  0
    7.5226   -1.4316    0.6537 N   0  0  0  0  0  0  0  0  0  0  0  0
    9.1967   -1.5316    0.2655 S   0  0  0  0  0  0  0  0  0  0  0  0
    9.5170   -2.9448    0.1785 O   0  0  0  0  0  0  0  0  0  0  0  0
    9.4229   -0.6656   -0.8742 O   0  0  0  0  0  0  0  0  0  0  0  0
   10.0491   -0.8468    1.6860 C   0  0  3  0  0  0  0  0  0  0  0  0
   11.5509   -0.8252    1.4583 C   0  0  0  0  0  0  0  0  0  0  0  0
   12.0145   -2.1432    2.0394 C   0  0  0  0  0  0  0  0  0  0  0  0
   11.1294   -2.4284    3.1248 O   0  0  0  0  0  0  0  0  0  0  0  0
    9.9019   -1.7022    2.9259 C   0  0  0  0  0  0  0  0  0  0  0  0
    6.9045   -0.0846    0.3721 C   0  0  0  0  0  0  0  0  0  0  0  0
    2.8215    2.1311   -0.1934 H   0  0  0  0  0  0  0  0  0  0  0  0
    5.2762    2.0713    0.0097 H   0  0  0  0  0  0  0  0  0  0  0  0
    2.6304   -2.1107    0.4388 H   0  0  0  0  0  0  0  0  0  0  0  0
    4.7477   -3.3555    0.1224 H   0  0  0  0  0  0  0  0  0  0  0  0
    6.9929   -4.1063    1.9049 H   0  0  0  0  0  0  0  0  0  0  0  0
    4.6157   -3.8180    4.8146 H   0  0  0  0  0  0  0  0  0  0  0  0
    7.3499   -5.2748    7.4806 H   0  0  0  0  0  0  0  0  0  0  0  0
    9.2823   -6.6804    6.7515 H   0  0  0  0  0  0  0  0  0  0  0  0
   10.7481   -7.4961    4.9468 H   0  0  0  0  0  0  0  0  0  0  0  0
   10.2705   -6.8840    2.5932 H   0  0  0  0  0  0  0  0  0  0  0  0
    8.3250   -5.5576    2.0285 H   0  0  0  0  0  0  0  0  0  0  0  0
    6.5843   -2.2724   -1.0530 H   0  0  0  0  0  0  0  0  0  0  0  0
    7.1927   -3.4765    0.0662 H   0  0  0  0  0  0  0  0  0  0  0  0
    9.6471    0.1653    1.8208 H   0  0  0  0  0  0  0  0  0  0  0  0
   11.9934   -0.0070    2.0435 H   0  0  0  0  0  0  0  0  0  0  0  0
   11.8640   -0.7019    0.4204 H   0  0  0  0  0  0  0  0  0  0  0  0
   13.0435   -2.0976    2.4074 H   0  0  0  0  0  0  0  0  0  0  0  0
   11.9462   -2.9599    1.3154 H   0  0  0  0  0  0  0  0  0  0  0  0
    9.7737   -1.0736    3.8123 H   0  0  0  0  0  0  0  0  0  0  0  0
    9.0735   -2.4138    2.8929 H   0  0  0  0  0  0  0  0  0  0  0  0
    7.2074    0.2510   -0.6262 H   0  0  0  0  0  0  0  0  0  0  0  0
    7.2688    0.6314    1.1190 H   0  0  0  0  0  0  0  0  0  0  0  0
  1  2  1  0  0  0  0
  2  3  1  0  0  0  0
  2  7  2  0  0  0  0
  3  4  2  0  0  0  0
  3 33  1  0  0  0  0
  4  5  1  0  0  0  0
  4 34  1  0  0  0  0
  5  6  2  0  0  0  0
  5 32  1  0  0  0  0
  6  7  1  0  0  0  0
  6  8  1  0  0  0  0
  7 35  1  0  0  0  0
  8  9  1  0  0  0  0
  8 22  1  0  0  0  0
  8 36  1  0  0  0  0
  9 10  2  0  0  0  0
  9 11  1  0  0  0  0
 11 12  1  0  0  0  0
 11 37  1  0  0  0  0
 12 13  1  0  0  0  0
 12 21  2  0  0  0  0
 13 14  2  0  0  0  0
 13 38  1  0  0  0  0
 14 15  1  0  0  0  0
 15 16  2  0  0  0  0
 15 39  1  0  0  0  0
 16 17  1  0  0  0  0
 16 21  1  0  0  0  0
 17 18  2  0  0  0  0
 17 40  1  0  0  0  0
 18 19  1  0  0  0  0
 18 41  1  0  0  0  0
 19 20  2  0  0  0  0
 19 42  1  0  0  0  0
 20 21  1  0  0  0  0
 20 43  1  0  0  0  0
 22 23  1  0  0  0  0
 22 44  1  0  0  0  0
 22 45  1  0  0  0  0
 23 24  1  0  0  0  0
 23 32  1  0  0  0  0
 24 25  2  0  0  0  0
 24 26  2  0  0  0  0
 24 27  1  0  0  0  0
 27 28  1  0  0  0  0
 27 31  1  0  0  0  0
 27 46  1  0  0  0  0
 28 29  1  0  0  0  0
 28 47  1  0  0  0  0
 28 48  1  0  0  0  0
 29 30  1  0  0  0  0
 29 49  1  0  0  0  0
 29 50  1  0  0  0  0
 30 31  1  0  0  0  0
 31 51  1  0  0  0  0
 31 52  1  0  0  0  0
 32 53  1  0  0  0  0
 32 54  1  0  0  0  0
M  END
$$$$
