
 OpenBabel07202414193D

 38 40  0  0  0  0  0  0  0  0999 V2000
    3.2035    1.4303    0.2881 N   0  0  0  0  0  0  0  0  0  0  0  0
    2.5323    0.2560    0.1024 C   0  0  0  0  0  0  0  0  0  0  0  0
    1.3778    0.2435   -0.2976 O   0  0  0  0  0  0  0  0  0  0  0  0
    3.2785   -1.0034    0.3556 C   0  0  0  0  0  0  0  0  0  0  0  0
    2.8783   -2.1547   -0.3215 C   0  0  0  0  0  0  0  0  0  0  0  0
    3.5562   -3.3612   -0.1181 C   0  0  0  0  0  0  0  0  0  0  0  0
    4.6502   -3.4549    0.7682 C   0  0  0  0  0  0  0  0  0  0  0  0
    5.4229   -4.6275    0.9628 C   0  0  0  0  0  0  0  0  0  0  0  0
    5.0736   -5.8386    0.3161 N   0  0  0  0  0  0  0  0  0  0  0  0
    6.0125   -6.6833   -0.2530 C   0  0  0  0  0  0  0  0  0  0  0  0
    7.2166   -6.4488   -0.3142 O   0  0  0  0  0  0  0  0  0  0  0  0
    5.4193   -7.9530   -0.8399 C   0  0  0  0  0  0  0  0  0  0  0  0
    4.7656   -7.7717   -2.1899 C   0  0  0  0  0  0  0  0  0  0  0  0
    5.4939   -7.2807   -3.2847 C   0  0  0  0  0  0  0  0  0  0  0  0
    4.8927   -7.1501   -4.5417 C   0  0  0  0  0  0  0  0  0  0  0  0
    3.5582   -7.5109   -4.7184 C   0  0  0  0  0  0  0  0  0  0  0  0
    2.8328   -8.0149   -3.6420 C   0  0  0  0  0  0  0  0  0  0  0  0
    1.1916   -8.4842   -3.8601 Cl  0  0  0  0  0  0  0  0  0  0  0  0
    3.4283   -8.1495   -2.3858 C   0  0  0  0  0  0  0  0  0  0  0  0
    6.5173   -4.5598    1.8273 C   0  0  0  0  0  0  0  0  0  0  0  0
    6.8796   -3.4563    2.5205 N   0  0  0  0  0  0  0  0  0  0  0  0
    6.1362   -2.3497    2.3129 C   0  0  0  0  0  0  0  0  0  0  0  0
    5.0389   -2.2775    1.4549 C   0  0  0  0  0  0  0  0  0  0  0  0
    4.3481   -1.0679    1.2561 C   0  0  0  0  0  0  0  0  0  0  0  0
    2.7114    2.2683    0.0012 H   0  0  0  0  0  0  0  0  0  0  0  0
    4.2081    1.4834    0.3506 H   0  0  0  0  0  0  0  0  0  0  0  0
    2.0472   -2.1162   -1.0243 H   0  0  0  0  0  0  0  0  0  0  0  0
    3.2265   -4.2149   -0.7052 H   0  0  0  0  0  0  0  0  0  0  0  0
    4.1225   -5.9388   -0.0142 H   0  0  0  0  0  0  0  0  0  0  0  0
    4.7022   -8.3573   -0.1144 H   0  0  0  0  0  0  0  0  0  0  0  0
    6.2196   -8.6984   -0.9245 H   0  0  0  0  0  0  0  0  0  0  0  0
    6.5435   -7.0108   -3.1745 H   0  0  0  0  0  0  0  0  0  0  0  0
    5.4673   -6.7735   -5.3832 H   0  0  0  0  0  0  0  0  0  0  0  0
    3.0956   -7.4115   -5.6957 H   0  0  0  0  0  0  0  0  0  0  0  0
    2.8493   -8.5691   -1.5666 H   0  0  0  0  0  0  0  0  0  0  0  0
    7.1309   -5.4329    2.0321 H   0  0  0  0  0  0  0  0  0  0  0  0
    6.4745   -1.4783    2.8721 H   0  0  0  0  0  0  0  0  0  0  0  0
    4.6467   -0.1808    1.8088 H   0  0  0  0  0  0  0  0  0  0  0  0
  1  2  1  0  0  0  0
  1 25  1  0  0  0  0
  1 26  1  0  0  0  0
  2  3  2  0  0  0  0
  2  4  1  0  0  0  0
  4  5  1  0  0  0  0
  4 24  2  0  0  0  0
  5  6  2  0  0  0  0
  5 27  1  0  0  0  0
  6  7  1  0  0  0  0
  6 28  1  0  0  0  0
  7  8  1  0  0  0  0
  7 23  2  0  0  0  0
  8  9  1  0  0  0  0
  8 20  2  0  0  0  0
  9 10  1  0  0  0  0
  9 29  1  0  0  0  0
 10 11  2  0  0  0  0
 10 12  1  0  0  0  0
 12 13  1  0  0  0  0
 12 30  1  0  0  0  0
 12 31  1  0  0  0  0
 13 14  1  0  0  0  0
 13 19  2  0  0  0  0
 14 15  2  0  0  0  0
 14 32  1  0  0  0  0
 15 16  1  0  0  0  0
 15 33  1  0  0  0  0
 16 17  2  0  0  0  0
 16 34  1  0  0  0  0
 17 18  1  0  0  0  0
 17 19  1  0  0  0  0
 19 35  1  0  0  0  0
 20 21  1  0  0  0  0
 20 36  1  0  0  0  0
 21 22  2  0  0  0  0
 22 23  1  0  0  0  0
 22 37  1  0  0  0  0
 23 24  1  0  0  0  0
 24 38  1  0  0  0  0
M  END
$$$$
