
 OpenBabel07202414123D

 34 35  0  0  1  0  0  0  0  0999 V2000
    0.9936    0.0169    0.0415 C   0  0  0  0  0  0  0  0  0  0  0  0
    2.5086   -0.1623   -0.0753 C   0  0  3  0  0  0  0  0  0  0  0  0
    3.0022   -1.0445    1.0734 C   0  0  0  0  0  0  0  0  0  0  0  0
    3.5990   -0.5522    2.0296 O   0  0  0  0  0  0  0  0  0  0  0  0
    2.7157   -2.3938    0.9564 N   0  0  0  0  0  0  0  0  0  0  0  0
    3.0149   -3.3257    1.9755 C   0  0  0  0  0  0  0  0  0  0  0  0
    2.7222   -3.0710    3.3162 C   0  0  0  0  0  0  0  0  0  0  0  0
    2.9178   -3.9578    4.3239 N   0  0  0  0  0  0  0  0  0  0  0  0
    3.4599   -5.1428    3.9828 C   0  0  0  0  0  0  0  0  0  0  0  0
    3.8142   -5.4835    2.6839 C   0  0  0  0  0  0  0  0  0  0  0  0
    3.5933   -4.5617    1.6538 C   0  0  0  0  0  0  0  0  0  0  0  0
    4.0824   -4.8696    0.2675 C   0  0  0  0  0  0  0  0  0  0  0  0
    2.9742   -0.6179   -1.4525 C   0  0  0  0  0  0  0  0  0  0  0  0
    4.2278   -0.2129   -1.9332 C   0  0  0  0  0  0  0  0  0  0  0  0
    4.6611   -0.5633   -3.2127 C   0  0  0  0  0  0  0  0  0  0  0  0
    3.8494   -1.3443   -4.0330 C   0  0  0  0  0  0  0  0  0  0  0  0
    2.6136   -1.7752   -3.5650 C   0  0  0  0  0  0  0  0  0  0  0  0
    1.6035   -2.7458   -4.5633 Cl  0  0  0  0  0  0  0  0  0  0  0  0
    2.1755   -1.4196   -2.2895 C   0  0  0  0  0  0  0  0  0  0  0  0
    0.7307    0.4455    1.0137 H   0  0  0  0  0  0  0  0  0  0  0  0
    0.4533   -0.9319   -0.0429 H   0  0  0  0  0  0  0  0  0  0  0  0
    0.6230    0.6915   -0.7377 H   0  0  0  0  0  0  0  0  0  0  0  0
    2.9492    0.8294    0.0961 H   0  0  0  0  0  0  0  0  0  0  0  0
    2.6301   -2.7543    0.0167 H   0  0  0  0  0  0  0  0  0  0  0  0
    2.2723   -2.1329    3.6295 H   0  0  0  0  0  0  0  0  0  0  0  0
    3.6222   -5.8328    4.8058 H   0  0  0  0  0  0  0  0  0  0  0  0
    4.2783   -6.4453    2.4936 H   0  0  0  0  0  0  0  0  0  0  0  0
    4.6369   -5.8132    0.2374 H   0  0  0  0  0  0  0  0  0  0  0  0
    4.7700   -4.0834   -0.0651 H   0  0  0  0  0  0  0  0  0  0  0  0
    3.2461   -4.9420   -0.4336 H   0  0  0  0  0  0  0  0  0  0  0  0
    4.8816    0.4121   -1.3124 H   0  0  0  0  0  0  0  0  0  0  0  0
    5.6271   -0.2191   -3.5773 H   0  0  0  0  0  0  0  0  0  0  0  0
    4.1803   -1.6076   -5.0365 H   0  0  0  0  0  0  0  0  0  0  0  0
    1.1941   -1.7615   -1.9678 H   0  0  0  0  0  0  0  0  0  0  0  0
  1  2  1  0  0  0  0
  1 20  1  0  0  0  0
  1 21  1  0  0  0  0
  1 22  1  0  0  0  0
  2  3  1  0  0  0  0
  2 13  1  0  0  0  0
  2 23  1  0  0  0  0
  3  4  2  0  0  0  0
  3  5  1  0  0  0  0
  5  6  1  0  0  0  0
  5 24  1  0  0  0  0
  6  7  1  0  0  0  0
  6 11  2  0  0  0  0
  7  8  2  0  0  0  0
  7 25  1  0  0  0  0
  8  9  1  0  0  0  0
  9 10  2  0  0  0  0
  9 26  1  0  0  0  0
 10 11  1  0  0  0  0
 10 27  1  0  0  0  0
 11 12  1  0  0  0  0
 12 28  1  0  0  0  0
 12 29  1  0  0  0  0
 12 30  1  0  0  0  0
 13 14  1  0  0  0  0
 13 19  2  0  0  0  0
 14 15  2  0  0  0  0
 14 31  1  0  0  0  0
 15 16  1  0  0  0  0
 15 32  1  0  0  0  0
 16 17  2  0  0  0  0
 16 33  1  0  0  0  0
 17 18  1  0  0  0  0
 17 19  1  0  0  0  0
 19 34  1  0  0  0  0
M  END
$$$$
