
 OpenBabel07202414173D

 45 48  0  0  1  0  0  0  0  0999 V2000
    3.5045    1.5101   -0.8215 Cl  0  0  0  0  0  0  0  0  0  0  0  0
    4.5734    1.0491    0.4427 C   0  0  0  0  0  0  0  0  0  0  0  0
    5.1303    2.0183    1.2685 C   0  0  0  0  0  0  0  0  0  0  0  0
    6.0377    1.6429    2.2580 C   0  0  0  0  0  0  0  0  0  0  0  0
    6.4071    0.3054    2.4081 C   0  0  0  0  0  0  0  0  0  0  0  0
    5.8603   -0.6776    1.5760 C   0  0  0  0  0  0  0  0  0  0  0  0
    4.9233   -0.2961    0.5975 C   0  0  0  0  0  0  0  0  0  0  0  0
    6.3966   -2.0982    1.5950 C   0  0  3  0  0  0  0  0  0  0  0  0
    5.4200   -3.1864    2.1126 C   0  0  0  0  0  0  0  0  0  0  0  0
    4.2854   -2.8971    2.4991 O   0  0  0  0  0  0  0  0  0  0  0  0
    5.8781   -4.5268    2.1211 N   0  0  0  0  0  0  0  0  0  0  0  0
    6.7986   -5.0609    1.1917 C   0  0  0  0  0  0  0  0  0  0  0  0
    7.6816   -5.8719    1.4641 O   0  0  0  0  0  0  0  0  0  0  0  0
    6.8069   -4.4720   -0.1718 C   0  0  0  0  0  0  0  0  0  0  0  0
    8.0036   -4.1402   -0.6848 C   0  0  0  0  0  0  0  0  0  0  0  0
    5.7835   -5.2390    3.4033 C   0  0  0  0  0  0  0  0  0  0  0  0
    5.8260   -4.5007    4.5918 C   0  0  0  0  0  0  0  0  0  0  0  0
    6.2218   -4.9838    5.7896 N   0  0  0  0  0  0  0  0  0  0  0  0
    6.5312   -6.2945    5.8321 C   0  0  0  0  0  0  0  0  0  0  0  0
    6.3373   -7.1801    4.7757 C   0  0  0  0  0  0  0  0  0  0  0  0
    6.5753   -8.5568    4.9378 C   0  0  0  0  0  0  0  0  0  0  0  0
    6.2844   -9.4518    3.9130 C   0  0  0  0  0  0  0  0  0  0  0  0
    5.7487   -8.9774    2.7215 C   0  0  0  0  0  0  0  0  0  0  0  0
    5.5615   -7.6028    2.5333 C   0  0  0  0  0  0  0  0  0  0  0  0
    5.8908   -6.6564    3.5385 C   0  0  0  0  0  0  0  0  0  0  0  0
    7.7372   -2.1296    2.3358 C   0  0  0  0  0  0  0  0  0  0  0  0
    7.6435   -1.3058    3.6072 C   0  0  0  0  0  0  0  0  0  0  0  0
    7.3821    0.0679    3.3340 O   0  0  0  0  0  0  0  0  0  0  0  0
    4.8799    3.0671    1.1366 H   0  0  0  0  0  0  0  0  0  0  0  0
    6.4897    2.4002    2.8939 H   0  0  0  0  0  0  0  0  0  0  0  0
    4.4994   -1.0362   -0.0749 H   0  0  0  0  0  0  0  0  0  0  0  0
    6.5872   -2.2875    0.5418 H   0  0  0  0  0  0  0  0  0  0  0  0
    5.8712   -4.2338   -0.6632 H   0  0  0  0  0  0  0  0  0  0  0  0
    8.9264   -4.3486   -0.1441 H   0  0  0  0  0  0  0  0  0  0  0  0
    8.0959   -3.6127   -1.6269 H   0  0  0  0  0  0  0  0  0  0  0  0
    5.6115   -3.4387    4.6243 H   0  0  0  0  0  0  0  0  0  0  0  0
    6.9247   -6.6317    6.7876 H   0  0  0  0  0  0  0  0  0  0  0  0
    6.9740   -8.9425    5.8744 H   0  0  0  0  0  0  0  0  0  0  0  0
    6.4571  -10.5157    4.0520 H   0  0  0  0  0  0  0  0  0  0  0  0
    5.4833   -9.6762    1.9321 H   0  0  0  0  0  0  0  0  0  0  0  0
    5.1314   -7.2736    1.5906 H   0  0  0  0  0  0  0  0  0  0  0  0
    8.5033   -1.6917    1.6837 H   0  0  0  0  0  0  0  0  0  0  0  0
    8.0655   -3.1438    2.5772 H   0  0  0  0  0  0  0  0  0  0  0  0
    8.6011   -1.3548    4.1360 H   0  0  0  0  0  0  0  0  0  0  0  0
    6.8785   -1.6808    4.2928 H   0  0  0  0  0  0  0  0  0  0  0  0
  1  2  1  0  0  0  0
  2  3  1  0  0  0  0
  2  7  2  0  0  0  0
  3  4  2  0  0  0  0
  3 29  1  0  0  0  0
  4  5  1  0  0  0  0
  4 30  1  0  0  0  0
  5  6  2  0  0  0  0
  5 28  1  0  0  0  0
  6  7  1  0  0  0  0
  6  8  1  0  0  0  0
  7 31  1  0  0  0  0
  8  9  1  0  0  0  0
  8 26  1  0  0  0  0
  8 32  1  0  0  0  0
  9 10  2  0  0  0  0
  9 11  1  0  0  0  0
 11 12  1  0  0  0  0
 11 16  1  0  0  0  0
 12 13  2  0  0  0  0
 12 14  1  0  0  0  0
 14 15  2  0  0  0  0
 14 33  1  0  0  0  0
 15 34  1  0  0  0  0
 15 35  1  0  0  0  0
 16 17  1  0  0  0  0
 16 25  2  0  0  0  0
 17 18  2  0  0  0  0
 17 36  1  0  0  0  0
 18 19  1  0  0  0  0
 19 20  2  0  0  0  0
 19 37  1  0  0  0  0
 20 21  1  0  0  0  0
 20 25  1  0  0  0  0
 21 22  2  0  0  0  0
 21 38  1  0  0  0  0
 22 23  1  0  0  0  0
 22 39  1  0  0  0  0
 23 24  2  0  0  0  0
 23 40  1  0  0  0  0
 24 25  1  0  0  0  0
 24 41  1  0  0  0  0
 26 27  1  0  0  0  0
 26 42  1  0  0  0  0
 26 43  1  0  0  0  0
 27 28  1  0  0  0  0
 27 44  1  0  0  0  0
 27 45  1  0  0  0  0
M  END
$$$$
