
 OpenBabel07202414123D

 61 62  0  0  1  0  0  0  0  0999 V2000
    2.9690    1.2504   -0.6823 C   0  0  0  0  0  0  0  0  0  0  0  0
    2.4268   -0.0107    0.0235 C   0  0  0  0  0  0  0  0  0  0  0  0
    2.7582    0.1374    1.5253 C   0  0  0  0  0  0  0  0  0  0  0  0
    0.8912   -0.0505   -0.1406 C   0  0  0  0  0  0  0  0  0  0  0  0
    3.0151   -1.3057   -0.5514 C   0  0  0  0  0  0  0  0  0  0  0  0
    3.8772   -1.3296   -1.6522 C   0  0  0  0  0  0  0  0  0  0  0  0
    4.3085   -2.5351   -2.2295 C   0  0  0  0  0  0  0  0  0  0  0  0
    3.9097   -3.7798   -1.7355 C   0  0  0  0  0  0  0  0  0  0  0  0
    3.1511   -3.7433   -0.5541 C   0  0  0  0  0  0  0  0  0  0  0  0
    2.6840   -2.5450    0.0012 C   0  0  0  0  0  0  0  0  0  0  0  0
    4.1942   -5.0370   -2.4352 N   0  0  0  0  0  0  0  0  0  0  0  0
    3.3789   -6.2544   -2.0973 C   0  0  3  0  0  0  0  0  0  0  0  0
    4.0130   -7.0760   -0.9636 C   0  0  0  0  0  0  0  0  0  0  0  0
    4.7780   -6.5133    0.0689 C   0  0  0  0  0  0  0  0  0  0  0  0
    5.3958   -7.3052    1.0241 C   0  0  0  0  0  0  0  0  0  0  0  0
    5.2339   -8.6732    0.9314 C   0  0  0  0  0  0  0  0  0  0  0  0
    4.5040   -9.2726   -0.0393 N   0  0  0  0  0  0  0  0  0  0  0  0
    3.9128   -8.4703   -0.9498 C   0  0  0  0  0  0  0  0  0  0  0  0
    1.7910   -6.2190   -2.0436 C   0  0  0  0  0  0  0  0  0  0  0  0
    1.1420   -7.2438   -1.7913 O   0  0  0  0  0  0  0  0  0  0  0  0
    1.1423   -5.0382   -2.3479 N   0  0  0  0  0  0  0  0  0  0  0  0
   -0.3143   -4.9108   -2.3610 C   0  0  0  0  0  0  0  0  0  0  0  0
   -0.7691   -3.5064   -1.9496 C   0  0  0  0  0  0  0  0  0  0  0  0
   -2.2944   -3.3700   -1.9392 C   0  0  0  0  0  0  0  0  0  0  0  0
   -2.7376   -1.6662   -1.4473 S   0  0  0  0  0  0  0  0  0  0  0  0
   -4.5431   -1.7849   -1.5193 C   0  0  0  0  0  0  0  0  0  0  0  0
    5.2466   -5.1066   -3.3817 C   0  0  0  0  0  0  0  0  0  0  0  0
    5.9725   -4.1624   -3.7114 O   0  0  0  0  0  0  0  0  0  0  0  0
    5.5560   -6.4170   -4.0364 C   0  0  0  0  0  0  0  0  0  0  0  0
    6.1188   -6.4438   -5.2600 C   0  0  0  0  0  0  0  0  0  0  0  0
    2.5862    2.1651   -0.2181 H   0  0  0  0  0  0  0  0  0  0  0  0
    2.6838    1.2777   -1.7411 H   0  0  0  0  0  0  0  0  0  0  0  0
    4.0638    1.2926   -0.6259 H   0  0  0  0  0  0  0  0  0  0  0  0
    2.3640    1.0867    1.9185 H   0  0  0  0  0  0  0  0  0  0  0  0
    3.8382    0.1290    1.6960 H   0  0  0  0  0  0  0  0  0  0  0  0
    2.3229   -0.6627    2.1220 H   0  0  0  0  0  0  0  0  0  0  0  0
    0.4207    0.8408    0.2897 H   0  0  0  0  0  0  0  0  0  0  0  0
    0.4500   -0.9193    0.3619 H   0  0  0  0  0  0  0  0  0  0  0  0
    0.6034   -0.1083   -1.1974 H   0  0  0  0  0  0  0  0  0  0  0  0
    4.2272   -0.4125   -2.1208 H   0  0  0  0  0  0  0  0  0  0  0  0
    4.9388   -2.4222   -3.1054 H   0  0  0  0  0  0  0  0  0  0  0  0
    2.8831   -4.6406   -0.0054 H   0  0  0  0  0  0  0  0  0  0  0  0
    2.0300   -2.6087    0.8680 H   0  0  0  0  0  0  0  0  0  0  0  0
    3.4749   -6.8948   -2.9806 H   0  0  0  0  0  0  0  0  0  0  0  0
    4.9475   -5.4450    0.1415 H   0  0  0  0  0  0  0  0  0  0  0  0
    6.0077   -6.8642    1.8023 H   0  0  0  0  0  0  0  0  0  0  0  0
    5.7133   -9.3410    1.6389 H   0  0  0  0  0  0  0  0  0  0  0  0
    3.3626   -9.0093   -1.7177 H   0  0  0  0  0  0  0  0  0  0  0  0
    1.6817   -4.2706   -2.7333 H   0  0  0  0  0  0  0  0  0  0  0  0
   -0.7551   -5.6618   -1.6959 H   0  0  0  0  0  0  0  0  0  0  0  0
   -0.6466   -5.1297   -3.3812 H   0  0  0  0  0  0  0  0  0  0  0  0
   -0.3335   -2.7754   -2.6428 H   0  0  0  0  0  0  0  0  0  0  0  0
   -0.3677   -3.2797   -0.9534 H   0  0  0  0  0  0  0  0  0  0  0  0
   -2.7396   -4.0737   -1.2272 H   0  0  0  0  0  0  0  0  0  0  0  0
   -2.7046   -3.5711   -2.9344 H   0  0  0  0  0  0  0  0  0  0  0  0
   -4.9737   -0.8203   -1.2375 H   0  0  0  0  0  0  0  0  0  0  0  0
   -4.9089   -2.5416   -0.8199 H   0  0  0  0  0  0  0  0  0  0  0  0
   -4.8742   -2.0257   -2.5331 H   0  0  0  0  0  0  0  0  0  0  0  0
    5.4178   -7.3495   -3.5061 H   0  0  0  0  0  0  0  0  0  0  0  0
    6.3304   -5.5333   -5.8097 H   0  0  0  0  0  0  0  0  0  0  0  0
    6.3950   -7.3830   -5.7308 H   0  0  0  0  0  0  0  0  0  0  0  0
  1  2  1  0  0  0  0
  1 31  1  0  0  0  0
  1 32  1  0  0  0  0
  1 33  1  0  0  0  0
  2  3  1  0  0  0  0
  2  4  1  0  0  0  0
  2  5  1  0  0  0  0
  3 34  1  0  0  0  0
  3 35  1  0  0  0  0
  3 36  1  0  0  0  0
  4 37  1  0  0  0  0
  4 38  1  0  0  0  0
  4 39  1  0  0  0  0
  5  6  1  0  0  0  0
  5 10  2  0  0  0  0
  6  7  2  0  0  0  0
  6 40  1  0  0  0  0
  7  8  1  0  0  0  0
  7 41  1  0  0  0  0
  8  9  2  0  0  0  0
  8 11  1  0  0  0  0
  9 10  1  0  0  0  0
  9 42  1  0  0  0  0
 10 43  1  0  0  0  0
 11 12  1  0  0  0  0
 11 27  1  0  0  0  0
 12 13  1  0  0  0  0
 12 19  1  0  0  0  0
 12 44  1  0  0  0  0
 13 14  1  0  0  0  0
 13 18  2  0  0  0  0
 14 15  2  0  0  0  0
 14 45  1  0  0  0  0
 15 16  1  0  0  0  0
 15 46  1  0  0  0  0
 16 17  2  0  0  0  0
 16 47  1  0  0  0  0
 17 18  1  0  0  0  0
 18 48  1  0  0  0  0
 19 20  2  0  0  0  0
 19 21  1  0  0  0  0
 21 22  1  0  0  0  0
 21 49  1  0  0  0  0
 22 23  1  0  0  0  0
 22 50  1  0  0  0  0
 22 51  1  0  0  0  0
 23 24  1  0  0  0  0
 23 52  1  0  0  0  0
 23 53  1  0  0  0  0
 24 25  1  0  0  0  0
 24 54  1  0  0  0  0
 24 55  1  0  0  0  0
 25 26  1  0  0  0  0
 26 56  1  0  0  0  0
 26 57  1  0  0  0  0
 26 58  1  0  0  0  0
 27 28  2  0  0  0  0
 27 29  1  0  0  0  0
 29 30  2  0  0  0  0
 29 59  1  0  0  0  0
 30 60  1  0  0  0  0
 30 61  1  0  0  0  0
M  END
$$$$
