
 OpenBabel07202414133D

 53 56  0  0  0  0  0  0  0  0999 V2000
    4.1717   -1.5732   -0.0904 C   0  0  0  0  0  0  0  0  0  0  0  0
    4.6597   -0.1598    0.2391 C   0  0  0  0  0  0  0  0  0  0  0  0
    4.5510    0.7967   -0.9582 C   0  0  0  0  0  0  0  0  0  0  0  0
    4.0318    0.4302   -2.0079 O   0  0  0  0  0  0  0  0  0  0  0  0
    5.0854    2.0647   -0.7337 N   0  0  0  0  0  0  0  0  0  0  0  0
    5.1283    3.1550   -1.6605 C   0  0  0  0  0  0  0  0  0  0  0  0
    4.4434    3.1816   -2.8780 C   0  0  0  0  0  0  0  0  0  0  0  0
    4.6024    4.2514   -3.8004 C   0  0  0  0  0  0  0  0  0  0  0  0
    5.4351    5.3474   -3.5250 C   0  0  0  0  0  0  0  0  0  0  0  0
    6.0803    5.3441   -2.2872 C   0  0  0  0  0  0  0  0  0  0  0  0
    5.9234    4.2708   -1.3643 C   0  0  0  0  0  0  0  0  0  0  0  0
    5.8418    6.2747   -4.5536 N   0  0  0  0  0  0  0  0  0  0  0  0
    6.7814    5.7194   -5.5649 C   0  0  0  0  0  0  0  0  0  0  0  0
    8.2712    6.0336   -5.4244 C   0  0  0  0  0  0  0  0  0  0  0  0
    9.2010    5.1549   -6.0192 C   0  0  0  0  0  0  0  0  0  0  0  0
   10.5683    5.4621   -6.0811 C   0  0  0  0  0  0  0  0  0  0  0  0
   11.0392    6.6555   -5.5536 C   0  0  0  0  0  0  0  0  0  0  0  0
   10.1414    7.5388   -4.9540 C   0  0  0  0  0  0  0  0  0  0  0  0
    8.7702    7.2325   -4.8941 C   0  0  0  0  0  0  0  0  0  0  0  0
    5.2300    7.5127   -4.8871 C   0  0  0  0  0  0  0  0  0  0  0  0
    5.5847    8.1446   -5.8815 O   0  0  0  0  0  0  0  0  0  0  0  0
    4.2781    7.9891   -4.0271 N   0  0  0  0  0  0  0  0  0  0  0  0
    3.4536    9.0592   -4.3398 N   0  0  0  0  0  0  0  0  0  0  0  0
    3.7657   10.3610   -4.7498 C   0  0  0  0  0  0  0  0  0  0  0  0
    4.8536   11.0181   -5.3558 C   0  0  0  0  0  0  0  0  0  0  0  0
    4.7389   12.3996   -5.6185 C   0  0  0  0  0  0  0  0  0  0  0  0
    3.6007   13.1222   -5.2673 C   0  0  0  0  0  0  0  0  0  0  0  0
    2.5196   12.4678   -4.6736 C   0  0  0  0  0  0  0  0  0  0  0  0
    2.6011   11.0776   -4.4427 C   0  0  0  0  0  0  0  0  0  0  0  0
    1.6591   10.2402   -3.9346 N   0  0  0  0  0  0  0  0  0  0  0  0
    2.1703    9.0079   -3.8982 N   0  0  0  0  0  0  0  0  0  0  0  0
    4.1798   -2.2133    0.7996 H   0  0  0  0  0  0  0  0  0  0  0  0
    4.8114   -2.0453   -0.8446 H   0  0  0  0  0  0  0  0  0  0  0  0
    3.1491   -1.5640   -0.4836 H   0  0  0  0  0  0  0  0  0  0  0  0
    5.7008   -0.2170    0.5747 H   0  0  0  0  0  0  0  0  0  0  0  0
    4.0533    0.2358    1.0616 H   0  0  0  0  0  0  0  0  0  0  0  0
    5.5901    2.1960    0.1371 H   0  0  0  0  0  0  0  0  0  0  0  0
    3.7788    2.3681   -3.1576 H   0  0  0  0  0  0  0  0  0  0  0  0
    4.0889    4.1723   -4.7574 H   0  0  0  0  0  0  0  0  0  0  0  0
    6.7782    6.1407   -2.0377 H   0  0  0  0  0  0  0  0  0  0  0  0
    6.4840    4.3086   -0.4312 H   0  0  0  0  0  0  0  0  0  0  0  0
    6.4857    6.0840   -6.5570 H   0  0  0  0  0  0  0  0  0  0  0  0
    6.6568    4.6297   -5.5997 H   0  0  0  0  0  0  0  0  0  0  0  0
    8.8645    4.2275   -6.4789 H   0  0  0  0  0  0  0  0  0  0  0  0
   11.2588    4.7754   -6.5664 H   0  0  0  0  0  0  0  0  0  0  0  0
   12.0940    6.9151   -5.6273 H   0  0  0  0  0  0  0  0  0  0  0  0
   10.5018    8.4856   -4.5571 H   0  0  0  0  0  0  0  0  0  0  0  0
    8.0937    7.9672   -4.4654 H   0  0  0  0  0  0  0  0  0  0  0  0
    3.6927    7.2722   -3.6213 H   0  0  0  0  0  0  0  0  0  0  0  0
    5.7445   10.4885   -5.6730 H   0  0  0  0  0  0  0  0  0  0  0  0
    5.5545   12.9196   -6.1200 H   0  0  0  0  0  0  0  0  0  0  0  0
    3.5446   14.1913   -5.4706 H   0  0  0  0  0  0  0  0  0  0  0  0
    1.6216   13.0203   -4.4064 H   0  0  0  0  0  0  0  0  0  0  0  0
  1  2  1  0  0  0  0
  1 32  1  0  0  0  0
  1 33  1  0  0  0  0
  1 34  1  0  0  0  0
  2  3  1  0  0  0  0
  2 35  1  0  0  0  0
  2 36  1  0  0  0  0
  3  4  2  0  0  0  0
  3  5  1  0  0  0  0
  5  6  1  0  0  0  0
  5 37  1  0  0  0  0
  6  7  1  0  0  0  0
  6 11  2  0  0  0  0
  7  8  2  0  0  0  0
  7 38  1  0  0  0  0
  8  9  1  0  0  0  0
  8 39  1  0  0  0  0
  9 10  2  0  0  0  0
  9 12  1  0  0  0  0
 10 11  1  0  0  0  0
 10 40  1  0  0  0  0
 11 41  1  0  0  0  0
 12 13  1  0  0  0  0
 12 20  1  0  0  0  0
 13 14  1  0  0  0  0
 13 42  1  0  0  0  0
 13 43  1  0  0  0  0
 14 15  1  0  0  0  0
 14 19  2  0  0  0  0
 15 16  2  0  0  0  0
 15 44  1  0  0  0  0
 16 17  1  0  0  0  0
 16 45  1  0  0  0  0
 17 18  2  0  0  0  0
 17 46  1  0  0  0  0
 18 19  1  0  0  0  0
 18 47  1  0  0  0  0
 19 48  1  0  0  0  0
 20 21  2  0  0  0  0
 20 22  1  0  0  0  0
 22 23  1  0  0  0  0
 22 49  1  0  0  0  0
 23 24  1  0  0  0  0
 23 31  1  0  0  0  0
 24 25  1  0  0  0  0
 24 29  2  0  0  0  0
 25 26  2  0  0  0  0
 25 50  1  0  0  0  0
 26 27  1  0  0  0  0
 26 51  1  0  0  0  0
 27 28  2  0  0  0  0
 27 52  1  0  0  0  0
 28 29  1  0  0  0  0
 28 53  1  0  0  0  0
 29 30  1  0  0  0  0
 30 31  2  0  0  0  0
M  END
$$$$
