
 OpenBabel07202414163D

 52 56  0  0  0  0  0  0  0  0999 V2000
   -2.1159   -0.2502    0.0958 Cl  0  0  0  0  0  0  0  0  0  0  0  0
   -0.3999   -0.1191    0.0586 C   0  0  0  0  0  0  0  0  0  0  0  0
    0.1957    1.1436    0.0515 C   0  0  0  0  0  0  0  0  0  0  0  0
    1.5891    1.2655    0.0159 C   0  0  0  0  0  0  0  0  0  0  0  0
    2.2482    2.6217   -0.0866 C   0  0  0  0  0  0  0  0  0  0  0  0
    3.2787    2.9415    0.9830 C   0  0  0  0  0  0  0  0  0  0  0  0
    4.4091    3.3182    0.6815 O   0  0  0  0  0  0  0  0  0  0  0  0
    2.8209    2.8081    2.2825 N   0  0  0  0  0  0  0  0  0  0  0  0
    3.6437    3.1091    3.3965 C   0  0  0  0  0  0  0  0  0  0  0  0
    4.3443    4.3153    3.4634 C   0  0  0  0  0  0  0  0  0  0  0  0
    5.1072    4.6989    4.5121 N   0  0  0  0  0  0  0  0  0  0  0  0
    5.2081    3.8174    5.5302 C   0  0  0  0  0  0  0  0  0  0  0  0
    4.5780    2.5712    5.5694 C   0  0  0  0  0  0  0  0  0  0  0  0
    4.7615    1.6836    6.6453 C   0  0  0  0  0  0  0  0  0  0  0  0
    4.1587    0.4267    6.6413 C   0  0  0  0  0  0  0  0  0  0  0  0
    3.3631    0.0447    5.5694 C   0  0  0  0  0  0  0  0  0  0  0  0
    3.1588    0.9250    4.5056 C   0  0  0  0  0  0  0  0  0  0  0  0
    3.7578    2.2055    4.4780 C   0  0  0  0  0  0  0  0  0  0  0  0
    2.3617    0.0962    0.0022 C   0  0  0  0  0  0  0  0  0  0  0  0
    1.7719   -1.1767    0.0266 C   0  0  0  0  0  0  0  0  0  0  0  0
    2.5501   -2.3470    0.0973 N   0  0  0  0  0  0  0  0  0  0  0  0
    3.8096   -2.5370    0.7144 C   0  0  0  0  0  0  0  0  0  0  0  0
    4.1210   -1.7678    1.8496 C   0  0  0  0  0  0  0  0  0  0  0  0
    5.3676   -1.8316    2.4513 C   0  0  0  0  0  0  0  0  0  0  0  0
    6.3345   -2.6911    1.9352 C   0  0  0  0  0  0  0  0  0  0  0  0
    8.0166   -2.6748    2.8371 Br  0  0  0  0  0  0  0  0  0  0  0  0
    6.0661   -3.5167    0.8152 C   0  0  0  0  0  0  0  0  0  0  0  0
    7.0203   -4.4143    0.2738 C   0  0  0  0  0  0  0  0  0  0  0  0
    6.7410   -5.2155   -0.8335 C   0  0  0  0  0  0  0  0  0  0  0  0
    5.5030   -5.1387   -1.4344 C   0  0  0  0  0  0  0  0  0  0  0  0
    4.5392   -4.2616   -0.9327 C   0  0  0  0  0  0  0  0  0  0  0  0
    4.7840   -3.4380    0.1947 C   0  0  0  0  0  0  0  0  0  0  0  0
    0.3788   -1.2739    0.0417 C   0  0  0  0  0  0  0  0  0  0  0  0
   -0.4350    2.0315    0.0573 H   0  0  0  0  0  0  0  0  0  0  0  0
    1.4997    3.4216   -0.0641 H   0  0  0  0  0  0  0  0  0  0  0  0
    2.7465    2.6796   -1.0626 H   0  0  0  0  0  0  0  0  0  0  0  0
    2.0707    2.1449    2.4243 H   0  0  0  0  0  0  0  0  0  0  0  0
    4.2795    5.0513    2.6660 H   0  0  0  0  0  0  0  0  0  0  0  0
    5.8497    4.1495    6.3437 H   0  0  0  0  0  0  0  0  0  0  0  0
    5.3929    1.9614    7.4868 H   0  0  0  0  0  0  0  0  0  0  0  0
    4.3183   -0.2574    7.4710 H   0  0  0  0  0  0  0  0  0  0  0  0
    2.9084   -0.9426    5.5499 H   0  0  0  0  0  0  0  0  0  0  0  0
    2.5485    0.5755    3.6789 H   0  0  0  0  0  0  0  0  0  0  0  0
    3.4476    0.1762   -0.0662 H   0  0  0  0  0  0  0  0  0  0  0  0
    2.2529   -3.0693   -0.5441 H   0  0  0  0  0  0  0  0  0  0  0  0
    3.3747   -1.1117    2.2797 H   0  0  0  0  0  0  0  0  0  0  0  0
    5.5758   -1.2004    3.3124 H   0  0  0  0  0  0  0  0  0  0  0  0
    8.0101   -4.5074    0.7127 H   0  0  0  0  0  0  0  0  0  0  0  0
    7.5011   -5.8939   -1.2205 H   0  0  0  0  0  0  0  0  0  0  0  0
    5.2733   -5.7565   -2.3000 H   0  0  0  0  0  0  0  0  0  0  0  0
    3.5872   -4.2404   -1.4526 H   0  0  0  0  0  0  0  0  0  0  0  0
   -0.0991   -2.2505    0.0690 H   0  0  0  0  0  0  0  0  0  0  0  0
  1  2  1  0  0  0  0
  2  3  2  0  0  0  0
  2 33  1  0  0  0  0
  3  4  1  0  0  0  0
  3 34  1  0  0  0  0
  4  5  1  0  0  0  0
  4 19  2  0  0  0  0
  5  6  1  0  0  0  0
  5 35  1  0  0  0  0
  5 36  1  0  0  0  0
  6  7  2  0  0  0  0
  6  8  1  0  0  0  0
  8  9  1  0  0  0  0
  8 37  1  0  0  0  0
  9 10  2  0  0  0  0
  9 18  1  0  0  0  0
 10 11  1  0  0  0  0
 10 38  1  0  0  0  0
 11 12  2  0  0  0  0
 12 13  1  0  0  0  0
 12 39  1  0  0  0  0
 13 14  2  0  0  0  0
 13 18  1  0  0  0  0
 14 15  1  0  0  0  0
 14 40  1  0  0  0  0
 15 16  2  0  0  0  0
 15 41  1  0  0  0  0
 16 17  1  0  0  0  0
 16 42  1  0  0  0  0
 17 18  2  0  0  0  0
 17 43  1  0  0  0  0
 19 20  1  0  0  0  0
 19 44  1  0  0  0  0
 20 21  1  0  0  0  0
 20 33  2  0  0  0  0
 21 22  1  0  0  0  0
 21 45  1  0  0  0  0
 22 23  2  0  0  0  0
 22 32  1  0  0  0  0
 23 24  1  0  0  0  0
 23 46  1  0  0  0  0
 24 25  2  0  0  0  0
 24 47  1  0  0  0  0
 25 26  1  0  0  0  0
 25 27  1  0  0  0  0
 27 28  2  0  0  0  0
 27 32  1  0  0  0  0
 28 29  1  0  0  0  0
 28 48  1  0  0  0  0
 29 30  2  0  0  0  0
 29 49  1  0  0  0  0
 30 31  1  0  0  0  0
 30 50  1  0  0  0  0
 31 32  2  0  0  0  0
 31 51  1  0  0  0  0
 33 52  1  0  0  0  0
M  END
$$$$
