
 OpenBabel07202414173D

 61 66  0  0  1  0  0  0  0  0999 V2000
    0.9595    0.3683   -0.0792 Cl  0  0  0  0  0  0  0  0  0  0  0  0
    2.6753    0.2517   -0.0448 C   0  0  0  0  0  0  0  0  0  0  0  0
    3.4453    1.4055   -0.0440 C   0  0  0  0  0  0  0  0  0  0  0  0
    4.8320    1.3002   -0.0310 C   0  0  0  0  0  0  0  0  0  0  0  0
    5.4561    0.0397   -0.0006 C   0  0  0  0  0  0  0  0  0  0  0  0
    4.6811   -1.1455    0.0118 C   0  0  0  0  0  0  0  0  0  0  0  0
    3.2797   -1.0063   -0.0227 C   0  0  0  0  0  0  0  0  0  0  0  0
    5.3549   -2.5366    0.0570 C   0  0  3  0  0  0  0  0  0  0  0  0
    6.8794   -2.4331   -0.1091 C   0  0  0  0  0  0  0  0  0  0  0  0
    7.5014   -1.2471    0.5352 N   0  0  0  0  0  0  0  0  0  0  0  0
    7.8191   -1.1896    2.1856 S   0  0  0  0  0  0  0  0  0  0  0  0
    8.6141   -0.0054    2.4178 O   0  0  0  0  0  0  0  0  0  0  0  0
    6.5813   -1.3353    2.9086 O   0  0  0  0  0  0  0  0  0  0  0  0
    8.8941   -2.6186    2.4403 C   0  0  0  0  0  0  0  0  0  0  0  0
   10.2858   -2.3746    1.8505 C   0  0  0  0  0  0  0  0  0  0  0  0
   10.2723   -2.2840    0.3924 C   0  0  0  0  0  0  0  0  0  0  0  0
   10.2737   -2.2629   -0.7685 N   0  0  0  0  0  0  0  0  0  0  0  0
   11.3766   -3.3866    2.3514 C   0  0  0  0  0  0  0  0  0  0  0  0
   12.3675   -2.2041    2.4172 C   0  0  0  0  0  0  0  0  0  0  0  0
   11.1483   -1.2816    2.5698 C   0  0  0  0  0  0  0  0  0  0  0  0
    6.9636    0.0020   -0.0261 C   0  0  0  0  0  0  0  0  0  0  0  0
    4.7929   -3.4611   -1.0610 C   0  0  0  0  0  0  0  0  0  0  0  0
    3.7848   -4.3839   -0.3843 C   0  0  0  0  0  0  0  0  0  0  0  0
    3.7328   -3.9662    0.9891 N   0  0  0  0  0  0  0  0  0  0  0  0
    2.8059   -4.5078    1.9233 C   0  0  0  0  0  0  0  0  0  0  0  0
    2.2472   -5.7622    1.6624 C   0  0  0  0  0  0  0  0  0  0  0  0
    1.2101   -6.3134    2.3229 N   0  0  0  0  0  0  0  0  0  0  0  0
    0.7174   -5.5919    3.3461 C   0  0  0  0  0  0  0  0  0  0  0  0
    1.2303   -4.3715    3.7788 C   0  0  0  0  0  0  0  0  0  0  0  0
    0.6804   -3.7512    4.9145 C   0  0  0  0  0  0  0  0  0  0  0  0
    1.1403   -2.5111    5.3401 C   0  0  0  0  0  0  0  0  0  0  0  0
    2.1222   -1.8628    4.6033 C   0  0  0  0  0  0  0  0  0  0  0  0
    2.6846   -2.4791    3.4730 C   0  0  0  0  0  0  0  0  0  0  0  0
    2.2912   -3.7777    3.0446 C   0  0  0  0  0  0  0  0  0  0  0  0
    4.9554   -3.3670    1.2934 C   0  0  0  0  0  0  0  0  0  0  0  0
    5.6431   -3.6406    2.2635 O   0  0  0  0  0  0  0  0  0  0  0  0
    2.9765    2.3851   -0.0540 H   0  0  0  0  0  0  0  0  0  0  0  0
    5.4311    2.2099   -0.0336 H   0  0  0  0  0  0  0  0  0  0  0  0
    2.6285   -1.8749   -0.0263 H   0  0  0  0  0  0  0  0  0  0  0  0
    7.1081   -2.3278   -1.1829 H   0  0  0  0  0  0  0  0  0  0  0  0
    7.3895   -3.3554    0.1810 H   0  0  0  0  0  0  0  0  0  0  0  0
    8.4173   -3.5131    2.0295 H   0  0  0  0  0  0  0  0  0  0  0  0
    8.9435   -2.7627    3.5251 H   0  0  0  0  0  0  0  0  0  0  0  0
   11.6601   -4.1875    1.6608 H   0  0  0  0  0  0  0  0  0  0  0  0
   11.1702   -3.8341    3.3307 H   0  0  0  0  0  0  0  0  0  0  0  0
   12.9271   -2.0329    1.4896 H   0  0  0  0  0  0  0  0  0  0  0  0
   13.0680   -2.2062    3.2553 H   0  0  0  0  0  0  0  0  0  0  0  0
   11.2332   -0.3114    2.0709 H   0  0  0  0  0  0  0  0  0  0  0  0
   10.8723   -1.1078    3.6184 H   0  0  0  0  0  0  0  0  0  0  0  0
    7.3065    0.0946   -1.0648 H   0  0  0  0  0  0  0  0  0  0  0  0
    7.3754    0.8718    0.4982 H   0  0  0  0  0  0  0  0  0  0  0  0
    5.5790   -4.0795   -1.5145 H   0  0  0  0  0  0  0  0  0  0  0  0
    4.3294   -2.9053   -1.8838 H   0  0  0  0  0  0  0  0  0  0  0  0
    4.1675   -5.4117   -0.4211 H   0  0  0  0  0  0  0  0  0  0  0  0
    2.7971   -4.3398   -0.8502 H   0  0  0  0  0  0  0  0  0  0  0  0
    2.6475   -6.4060    0.8863 H   0  0  0  0  0  0  0  0  0  0  0  0
   -0.1518   -6.0377    3.8242 H   0  0  0  0  0  0  0  0  0  0  0  0
   -0.1049   -4.2418    5.4865 H   0  0  0  0  0  0  0  0  0  0  0  0
    0.7298   -2.0550    6.2377 H   0  0  0  0  0  0  0  0  0  0  0  0
    2.4650   -0.8777    4.9128 H   0  0  0  0  0  0  0  0  0  0  0  0
    3.4527   -1.9233    2.9408 H   0  0  0  0  0  0  0  0  0  0  0  0
  1  2  1  0  0  0  0
  2  3  1  0  0  0  0
  2  7  2  0  0  0  0
  3  4  2  0  0  0  0
  3 37  1  0  0  0  0
  4  5  1  0  0  0  0
  4 38  1  0  0  0  0
  5  6  2  0  0  0  0
  5 21  1  0  0  0  0
  6  7  1  0  0  0  0
  6  8  1  0  0  0  0
  7 39  1  0  0  0  0
  8  9  1  0  0  0  0
  8 22  1  0  0  0  0
  8 35  1  0  0  0  0
  9 10  1  0  0  0  0
  9 40  1  0  0  0  0
  9 41  1  0  0  0  0
 10 11  1  0  0  0  0
 10 21  1  0  0  0  0
 11 12  2  0  0  0  0
 11 13  2  0  0  0  0
 11 14  1  0  0  0  0
 14 15  1  0  0  0  0
 14 42  1  0  0  0  0
 14 43  1  0  0  0  0
 15 16  1  0  0  0  0
 15 18  1  0  0  0  0
 15 20  1  0  0  0  0
 16 17  3  0  0  0  0
 18 19  1  0  0  0  0
 18 44  1  0  0  0  0
 18 45  1  0  0  0  0
 19 20  1  0  0  0  0
 19 46  1  0  0  0  0
 19 47  1  0  0  0  0
 20 48  1  0  0  0  0
 20 49  1  0  0  0  0
 21 50  1  0  0  0  0
 21 51  1  0  0  0  0
 22 23  1  0  0  0  0
 22 52  1  0  0  0  0
 22 53  1  0  0  0  0
 23 24  1  0  0  0  0
 23 54  1  0  0  0  0
 23 55  1  0  0  0  0
 24 25  1  0  0  0  0
 24 35  1  0  0  0  0
 25 26  1  0  0  0  0
 25 34  2  0  0  0  0
 26 27  2  0  0  0  0
 26 56  1  0  0  0  0
 27 28  1  0  0  0  0
 28 29  2  0  0  0  0
 28 57  1  0  0  0  0
 29 30  1  0  0  0  0
 29 34  1  0  0  0  0
 30 31  2  0  0  0  0
 30 58  1  0  0  0  0
 31 32  1  0  0  0  0
 31 59  1  0  0  0  0
 32 33  2  0  0  0  0
 32 60  1  0  0  0  0
 33 34  1  0  0  0  0
 33 61  1  0  0  0  0
 35 36  2  0  0  0  0
M  END
$$$$
