
 OpenBabel07202414183D

 49 52  0  0  1  0  0  0  0  0999 V2000
   -1.7538    0.0592    1.6825 Cl  0  0  0  0  0  0  0  0  0  0  0  0
   -0.2709    0.0805    0.8110 C   0  0  0  0  0  0  0  0  0  0  0  0
    0.1305    1.2501    0.1723 C   0  0  0  0  0  0  0  0  0  0  0  0
    1.3405    1.2707   -0.5145 C   0  0  0  0  0  0  0  0  0  0  0  0
    2.1345    0.1223   -0.5637 C   0  0  0  0  0  0  0  0  0  0  0  0
    1.7341   -1.0776    0.0428 C   0  0  0  0  0  0  0  0  0  0  0  0
    2.5069   -2.3848   -0.0907 C   0  0  3  0  0  0  0  0  0  0  0  0
    2.0080   -3.1375   -1.2330 N   0  0  0  0  0  0  0  0  0  0  0  0
    2.1148   -4.5096   -1.2807 C   0  0  0  0  0  0  0  0  0  0  0  0
    2.5983   -5.1774   -0.3726 O   0  0  0  0  0  0  0  0  0  0  0  0
    1.6116   -5.1304   -2.5897 C   0  0  2  0  0  0  0  0  0  0  0  0
    2.7100   -5.9550   -3.2432 C   0  0  0  0  0  0  0  0  0  0  0  0
    2.4397   -5.7758   -4.7136 C   0  0  0  0  0  0  0  0  0  0  0  0
    1.8982   -4.3673   -4.7769 C   0  0  0  0  0  0  0  0  0  0  0  0
    1.2148   -4.1238   -3.5410 O   0  0  0  0  0  0  0  0  0  0  0  0
    4.0543   -2.2270   -0.1952 C   0  0  0  0  0  0  0  0  0  0  0  0
    4.7676   -2.2159    0.8035 O   0  0  0  0  0  0  0  0  0  0  0  0
    4.5268   -1.9260   -1.4760 N   0  0  0  0  0  0  0  0  0  0  0  0
    5.8965   -1.6519   -1.7174 C   0  0  0  0  0  0  0  0  0  0  0  0
    6.8736   -2.5500   -1.2833 C   0  0  0  0  0  0  0  0  0  0  0  0
    8.1966   -2.4064   -1.5158 N   0  0  0  0  0  0  0  0  0  0  0  0
    8.5729   -1.2827   -2.1623 C   0  0  0  0  0  0  0  0  0  0  0  0
    7.6979   -0.2901   -2.6091 C   0  0  0  0  0  0  0  0  0  0  0  0
    8.1756    0.8873   -3.2152 C   0  0  0  0  0  0  0  0  0  0  0  0
    7.2975    1.8972   -3.6046 C   0  0  0  0  0  0  0  0  0  0  0  0
    5.9336    1.7274   -3.4191 C   0  0  0  0  0  0  0  0  0  0  0  0
    5.4461    0.5482   -2.8496 C   0  0  0  0  0  0  0  0  0  0  0  0
    6.3117   -0.4837   -2.4086 C   0  0  0  0  0  0  0  0  0  0  0  0
    0.5114   -1.0752    0.7423 C   0  0  0  0  0  0  0  0  0  0  0  0
   -0.4830    2.1440    0.2115 H   0  0  0  0  0  0  0  0  0  0  0  0
    1.6701    2.1829   -1.0064 H   0  0  0  0  0  0  0  0  0  0  0  0
    3.0828    0.2046   -1.0752 H   0  0  0  0  0  0  0  0  0  0  0  0
    2.3398   -2.9878    0.8114 H   0  0  0  0  0  0  0  0  0  0  0  0
    1.5407   -2.6833   -2.0133 H   0  0  0  0  0  0  0  0  0  0  0  0
    0.7292   -5.7395   -2.3664 H   0  0  0  0  0  0  0  0  0  0  0  0
    2.6888   -7.0036   -2.9301 H   0  0  0  0  0  0  0  0  0  0  0  0
    3.7028   -5.5596   -2.9953 H   0  0  0  0  0  0  0  0  0  0  0  0
    1.6742   -6.4890   -5.0395 H   0  0  0  0  0  0  0  0  0  0  0  0
    3.3256   -5.9169   -5.3388 H   0  0  0  0  0  0  0  0  0  0  0  0
    1.2069   -4.2232   -5.6120 H   0  0  0  0  0  0  0  0  0  0  0  0
    2.7055   -3.6325   -4.8605 H   0  0  0  0  0  0  0  0  0  0  0  0
    3.8490   -1.5466   -2.1209 H   0  0  0  0  0  0  0  0  0  0  0  0
    6.6051   -3.4606   -0.7535 H   0  0  0  0  0  0  0  0  0  0  0  0
    9.6467   -1.1888   -2.3026 H   0  0  0  0  0  0  0  0  0  0  0  0
    9.2438    1.0362   -3.3622 H   0  0  0  0  0  0  0  0  0  0  0  0
    7.6801    2.8147   -4.0421 H   0  0  0  0  0  0  0  0  0  0  0  0
    5.2436    2.5184   -3.7050 H   0  0  0  0  0  0  0  0  0  0  0  0
    4.3741    0.4688   -2.7290 H   0  0  0  0  0  0  0  0  0  0  0  0
    0.1670   -1.9824    1.2350 H   0  0  0  0  0  0  0  0  0  0  0  0
  1  2  1  0  0  0  0
  2  3  1  0  0  0  0
  2 29  2  0  0  0  0
  3  4  2  0  0  0  0
  3 30  1  0  0  0  0
  4  5  1  0  0  0  0
  4 31  1  0  0  0  0
  5  6  2  0  0  0  0
  5 32  1  0  0  0  0
  6  7  1  0  0  0  0
  6 29  1  0  0  0  0
  7  8  1  0  0  0  0
  7 16  1  0  0  0  0
  7 33  1  0  0  0  0
  8  9  1  0  0  0  0
  8 34  1  0  0  0  0
  9 10  2  0  0  0  0
  9 11  1  0  0  0  0
 11 12  1  0  0  0  0
 11 15  1  0  0  0  0
 11 35  1  1  0  0  0
 12 13  1  0  0  0  0
 12 36  1  0  0  0  0
 12 37  1  0  0  0  0
 13 14  1  0  0  0  0
 13 38  1  0  0  0  0
 13 39  1  0  0  0  0
 14 15  1  0  0  0  0
 14 40  1  0  0  0  0
 14 41  1  0  0  0  0
 16 17  2  0  0  0  0
 16 18  1  0  0  0  0
 18 19  1  0  0  0  0
 18 42  1  0  0  0  0
 19 20  1  0  0  0  0
 19 28  2  0  0  0  0
 20 21  2  0  0  0  0
 20 43  1  0  0  0  0
 21 22  1  0  0  0  0
 22 23  2  0  0  0  0
 22 44  1  0  0  0  0
 23 24  1  0  0  0  0
 23 28  1  0  0  0  0
 24 25  2  0  0  0  0
 24 45  1  0  0  0  0
 25 26  1  0  0  0  0
 25 46  1  0  0  0  0
 26 27  2  0  0  0  0
 26 47  1  0  0  0  0
 27 28  1  0  0  0  0
 27 48  1  0  0  0  0
 29 49  1  0  0  0  0
M  END
$$$$
