
 OpenBabel07202414123D

 60 63  0  0  1  0  0  0  0  0999 V2000
    0.9223   -2.1530    0.1747 C   0  0  0  0  0  0  0  0  0  0  0  0
    2.1567   -1.2489    0.1892 C   0  0  0  0  0  0  0  0  0  0  0  0
    1.7220    0.2034    0.0064 C   0  0  0  0  0  0  0  0  0  0  0  0
    2.7847   -1.4107    1.4707 O   0  0  0  0  0  0  0  0  0  0  0  0
    4.1495   -1.4280    1.5038 C   0  0  0  0  0  0  0  0  0  0  0  0
    4.9858   -0.6706    0.6906 C   0  0  0  0  0  0  0  0  0  0  0  0
    6.3809   -0.7809    0.8031 C   0  0  0  0  0  0  0  0  0  0  0  0
    6.9689   -1.6680    1.7130 C   0  0  0  0  0  0  0  0  0  0  0  0
    8.4020   -1.8532    1.7348 N   0  0  0  0  0  0  0  0  0  0  0  0
    8.9383   -3.2376    1.8845 C   0  0  3  0  0  0  0  0  0  0  0  0
    9.2205   -3.6231    3.3664 C   0  0  0  0  0  0  0  0  0  0  0  0
    9.6828   -4.7136    3.6973 O   0  0  0  0  0  0  0  0  0  0  0  0
    8.8782   -2.6681    4.3044 N   0  0  0  0  0  0  0  0  0  0  0  0
    9.0074   -2.8940    5.7268 C   0  0  0  0  0  0  0  0  0  0  0  0
   10.3706   -2.4640    6.2477 C   0  0  0  0  0  0  0  0  0  0  0  0
   10.4435   -2.6489    7.7154 C   0  0  0  0  0  0  0  0  0  0  0  0
   10.7758   -3.7050    8.5224 C   0  0  0  0  0  0  0  0  0  0  0  0
   10.6008   -3.1985    9.8242 C   0  0  0  0  0  0  0  0  0  0  0  0
   10.1891   -1.9280    9.8164 N   0  0  0  0  0  0  0  0  0  0  0  0
   10.0952   -1.5817    8.4810 O   0  0  0  0  0  0  0  0  0  0  0  0
    8.2620   -4.3502    1.0782 C   0  0  0  0  0  0  0  0  0  0  0  0
    8.6306   -4.5806   -0.2574 C   0  0  0  0  0  0  0  0  0  0  0  0
    8.2212   -5.7454   -0.9047 C   0  0  0  0  0  0  0  0  0  0  0  0
    7.4120   -6.6295   -0.2146 C   0  0  0  0  0  0  0  0  0  0  0  0
    6.9614   -6.4054    1.0353 N   0  0  0  0  0  0  0  0  0  0  0  0
    7.4008   -5.2829    1.6524 C   0  0  0  0  0  0  0  0  0  0  0  0
    9.2411   -0.6990    1.7406 C   0  0  0  0  0  0  0  0  0  0  0  0
    8.7716    0.4400    1.7178 O   0  0  0  0  0  0  0  0  0  0  0  0
   10.7089   -0.8193    1.8906 C   0  0  0  0  0  0  0  0  0  0  0  0
   11.5670    0.2621    1.9699 C   0  0  0  0  0  0  0  0  0  0  0  0
   12.8417   -0.1925    2.1108 O   0  0  0  0  0  0  0  0  0  0  0  0
   12.7081   -1.5440    2.1246 C   0  0  0  0  0  0  0  0  0  0  0  0
   11.4671   -1.9691    2.0192 N   0  0  0  0  0  0  0  0  0  0  0  0
    6.1139   -2.3650    2.5778 C   0  0  0  0  0  0  0  0  0  0  0  0
    4.7213   -2.2356    2.4833 C   0  0  0  0  0  0  0  0  0  0  0  0
    0.3514   -2.0331   -0.7524 H   0  0  0  0  0  0  0  0  0  0  0  0
    0.2625   -1.9346    1.0218 H   0  0  0  0  0  0  0  0  0  0  0  0
    1.2142   -3.2050    0.2628 H   0  0  0  0  0  0  0  0  0  0  0  0
    2.8104   -1.5688   -0.6326 H   0  0  0  0  0  0  0  0  0  0  0  0
    1.3317    0.6189    0.9405 H   0  0  0  0  0  0  0  0  0  0  0  0
    0.9599    0.3006   -0.7737 H   0  0  0  0  0  0  0  0  0  0  0  0
    2.5680    0.8295   -0.2896 H   0  0  0  0  0  0  0  0  0  0  0  0
    4.5868    0.0226   -0.0400 H   0  0  0  0  0  0  0  0  0  0  0  0
    6.9937   -0.1803    0.1352 H   0  0  0  0  0  0  0  0  0  0  0  0
    9.9247   -3.2407    1.4250 H   0  0  0  0  0  0  0  0  0  0  0  0
    8.5563   -1.7604    3.9896 H   0  0  0  0  0  0  0  0  0  0  0  0
    8.8244   -3.9556    5.9352 H   0  0  0  0  0  0  0  0  0  0  0  0
    8.2017   -2.3228    6.2043 H   0  0  0  0  0  0  0  0  0  0  0  0
   10.5489   -1.4112    5.9924 H   0  0  0  0  0  0  0  0  0  0  0  0
   11.1641   -3.0392    5.7506 H   0  0  0  0  0  0  0  0  0  0  0  0
   11.0866   -4.6961    8.2207 H   0  0  0  0  0  0  0  0  0  0  0  0
   10.7415   -3.6981   10.7708 H   0  0  0  0  0  0  0  0  0  0  0  0
    9.2968   -3.8958   -0.7773 H   0  0  0  0  0  0  0  0  0  0  0  0
    8.5576   -5.9784   -1.9090 H   0  0  0  0  0  0  0  0  0  0  0  0
    7.1103   -7.5767   -0.6528 H   0  0  0  0  0  0  0  0  0  0  0  0
    7.0543   -5.1924    2.6777 H   0  0  0  0  0  0  0  0  0  0  0  0
   11.4380    1.3347    1.9520 H   0  0  0  0  0  0  0  0  0  0  0  0
   13.6111   -2.1259    2.2173 H   0  0  0  0  0  0  0  0  0  0  0  0
    6.4896   -3.0002    3.3719 H   0  0  0  0  0  0  0  0  0  0  0  0
    4.0810   -2.7849    3.1690 H   0  0  0  0  0  0  0  0  0  0  0  0
  1  2  1  0  0  0  0
  1 36  1  0  0  0  0
  1 37  1  0  0  0  0
  1 38  1  0  0  0  0
  2  3  1  0  0  0  0
  2  4  1  0  0  0  0
  2 39  1  0  0  0  0
  3 40  1  0  0  0  0
  3 41  1  0  0  0  0
  3 42  1  0  0  0  0
  4  5  1  0  0  0  0
  5  6  1  0  0  0  0
  5 35  2  0  0  0  0
  6  7  2  0  0  0  0
  6 43  1  0  0  0  0
  7  8  1  0  0  0  0
  7 44  1  0  0  0  0
  8  9  1  0  0  0  0
  8 34  2  0  0  0  0
  9 10  1  0  0  0  0
  9 27  1  0  0  0  0
 10 11  1  0  0  0  0
 10 21  1  0  0  0  0
 10 45  1  0  0  0  0
 11 12  2  0  0  0  0
 11 13  1  0  0  0  0
 13 14  1  0  0  0  0
 13 46  1  0  0  0  0
 14 15  1  0  0  0  0
 14 47  1  0  0  0  0
 14 48  1  0  0  0  0
 15 16  1  0  0  0  0
 15 49  1  0  0  0  0
 15 50  1  0  0  0  0
 16 17  2  0  0  0  0
 16 20  1  0  0  0  0
 17 18  1  0  0  0  0
 17 51  1  0  0  0  0
 18 19  2  0  0  0  0
 18 52  1  0  0  0  0
 19 20  1  0  0  0  0
 21 22  1  0  0  0  0
 21 26  2  0  0  0  0
 22 23  2  0  0  0  0
 22 53  1  0  0  0  0
 23 24  1  0  0  0  0
 23 54  1  0  0  0  0
 24 25  2  0  0  0  0
 24 55  1  0  0  0  0
 25 26  1  0  0  0  0
 26 56  1  0  0  0  0
 27 28  2  0  0  0  0
 27 29  1  0  0  0  0
 29 30  2  0  0  0  0
 29 33  1  0  0  0  0
 30 31  1  0  0  0  0
 30 57  1  0  0  0  0
 31 32  1  0  0  0  0
 32 33  2  0  0  0  0
 32 58  1  0  0  0  0
 34 35  1  0  0  0  0
 34 59  1  0  0  0  0
 35 60  1  0  0  0  0
M  END
$$$$
