
 OpenBabel07202414143D

 59 63  0  0  1  0  0  0  0  0999 V2000
    7.2724    0.1159   -2.3456 C   0  0  0  0  0  0  0  0  0  0  0  0
    6.3814    0.8452   -1.4787 N   0  0  0  0  0  0  0  0  0  0  0  0
    6.0282    0.3714   -0.2338 C   0  0  0  0  0  0  0  0  0  0  0  0
    6.3602   -0.7414    0.1717 O   0  0  0  0  0  0  0  0  0  0  0  0
    5.0765    1.2675    0.5784 C   0  0  0  0  0  0  0  0  0  0  0  0
    5.5589    2.6188    0.9708 N   0  0  0  0  0  0  0  0  0  0  0  0
    6.1558    2.9351    2.2851 C   0  0  0  0  0  0  0  0  0  0  0  0
    5.5725    4.2665    2.9482 C   0  0  2  0  0  0  0  0  0  0  0  0
    6.2358    4.6003    4.4523 C   0  0  0  0  0  0  0  0  0  0  0  0
    7.4397    4.7566    4.6374 O   0  0  0  0  0  0  0  0  0  0  0  0
    5.1916    4.6967    5.4448 N   0  0  0  0  0  0  0  0  0  0  0  0
    5.1047    5.1094    6.9112 C   0  0  0  0  0  0  0  0  0  0  0  0
    6.0333    5.4773    7.9241 C   0  0  0  0  0  0  0  0  0  0  0  0
    6.0260    4.8480    9.2392 C   0  0  0  0  0  0  0  0  0  0  0  0
    6.4332    5.4971   10.4608 C   0  0  0  0  0  0  0  0  0  0  0  0
    7.0769    6.7159   10.3766 C   0  0  0  0  0  0  0  0  0  0  0  0
    7.0944    7.2942    9.1224 C   0  0  0  0  0  0  0  0  0  0  0  0
    6.1544    6.8326    8.1917 C   0  0  0  0  0  0  0  0  0  0  0  0
    4.8816    7.4063    8.3001 C   0  0  0  0  0  0  0  0  0  0  0  0
    3.7215    6.7753    7.9688 N   0  0  0  0  0  0  0  0  0  0  0  0
    3.8617    5.6153    7.2919 C   0  0  0  0  0  0  0  0  0  0  0  0
    3.9278    4.6083    4.7700 C   0  0  0  0  0  0  0  0  0  0  0  0
    4.0431    4.1276    3.3195 C   0  0  0  0  0  0  0  0  0  0  0  0
    3.4726    2.6952    3.2730 C   0  0  0  0  0  0  0  0  0  0  0  0
    3.0640    5.0059    2.5007 C   0  0  0  0  0  0  0  0  0  0  0  0
    5.7860    5.3459    1.7974 C   0  0  0  0  0  0  0  0  0  0  0  0
    5.7401    4.9722    0.4106 C   0  0  0  0  0  0  0  0  0  0  0  0
    5.7278    5.8984   -0.6411 C   0  0  0  0  0  0  0  0  0  0  0  0
    5.7235    7.2532   -0.3703 C   0  0  0  0  0  0  0  0  0  0  0  0
    5.7686    7.6588    0.9626 C   0  0  0  0  0  0  0  0  0  0  0  0
    5.6414    9.3454    1.2906 Cl  0  0  0  0  0  0  0  0  0  0  0  0
    5.8397    6.7337    2.0344 C   0  0  0  0  0  0  0  0  0  0  0  0
    5.4911    3.5723   -0.0264 C   0  0  0  0  0  0  0  0  0  0  0  0
    5.2159    3.3164   -1.1938 O   0  0  0  0  0  0  0  0  0  0  0  0
    7.4030    0.6697   -3.2790 H   0  0  0  0  0  0  0  0  0  0  0  0
    6.8600   -0.8752   -2.5565 H   0  0  0  0  0  0  0  0  0  0  0  0
    8.2373    0.0028   -1.8440 H   0  0  0  0  0  0  0  0  0  0  0  0
    6.0069    1.7472   -1.7792 H   0  0  0  0  0  0  0  0  0  0  0  0
    4.7559    0.7311    1.4739 H   0  0  0  0  0  0  0  0  0  0  0  0
    4.1773    1.3892   -0.0452 H   0  0  0  0  0  0  0  0  0  0  0  0
    7.2282    3.0619    2.0892 H   0  0  0  0  0  0  0  0  0  0  0  0
    6.0601    2.0660    2.9377 H   0  0  0  0  0  0  0  0  0  0  0  0
    5.4934    3.9040    9.3853 H   0  0  0  0  0  0  0  0  0  0  0  0
    6.2441    5.0604   11.4426 H   0  0  0  0  0  0  0  0  0  0  0  0
    7.5478    7.1917   11.2356 H   0  0  0  0  0  0  0  0  0  0  0  0
    7.7837    8.0966    8.8868 H   0  0  0  0  0  0  0  0  0  0  0  0
    4.7156    8.3178    8.8715 H   0  0  0  0  0  0  0  0  0  0  0  0
    2.9184    5.2252    6.9361 H   0  0  0  0  0  0  0  0  0  0  0  0
    3.4845    5.6109    4.7949 H   0  0  0  0  0  0  0  0  0  0  0  0
    3.2997    3.9161    5.3433 H   0  0  0  0  0  0  0  0  0  0  0  0
    4.1081    1.9778    3.7996 H   0  0  0  0  0  0  0  0  0  0  0  0
    3.3144    2.3640    2.2453 H   0  0  0  0  0  0  0  0  0  0  0  0
    2.4860    2.6482    3.7488 H   0  0  0  0  0  0  0  0  0  0  0  0
    3.2943    6.0735    2.5875 H   0  0  0  0  0  0  0  0  0  0  0  0
    2.0395    4.8906    2.8762 H   0  0  0  0  0  0  0  0  0  0  0  0
    3.0546    4.7333    1.4424 H   0  0  0  0  0  0  0  0  0  0  0  0
    5.6617    5.5754   -1.6876 H   0  0  0  0  0  0  0  0  0  0  0  0
    5.6412    7.9632   -1.1904 H   0  0  0  0  0  0  0  0  0  0  0  0
    5.8449    7.1163    3.0508 H   0  0  0  0  0  0  0  0  0  0  0  0
  1  2  1  0  0  0  0
  1 35  1  0  0  0  0
  1 36  1  0  0  0  0
  1 37  1  0  0  0  0
  2  3  1  0  0  0  0
  2 38  1  0  0  0  0
  3  4  2  0  0  0  0
  3  5  1  0  0  0  0
  5  6  1  0  0  0  0
  5 39  1  0  0  0  0
  5 40  1  0  0  0  0
  6  7  1  0  0  0  0
  6 33  1  0  0  0  0
  7  8  1  0  0  0  0
  7 41  1  0  0  0  0
  7 42  1  0  0  0  0
  8  9  1  1  0  0  0
  8 23  1  0  0  0  0
  8 26  1  0  0  0  0
  9 10  2  0  0  0  0
  9 11  1  0  0  0  0
 11 12  1  0  0  0  0
 11 22  1  0  0  0  0
 12 13  2  0  0  0  0
 12 21  1  0  0  0  0
 13 14  1  0  0  0  0
 13 18  1  0  0  0  0
 14 15  2  0  0  0  0
 14 43  1  0  0  0  0
 15 16  1  0  0  0  0
 15 44  1  0  0  0  0
 16 17  2  0  0  0  0
 16 45  1  0  0  0  0
 17 18  1  0  0  0  0
 17 46  1  0  0  0  0
 18 19  2  0  0  0  0
 19 20  1  0  0  0  0
 19 47  1  0  0  0  0
 20 21  2  0  0  0  0
 21 48  1  0  0  0  0
 22 23  1  0  0  0  0
 22 49  1  0  0  0  0
 22 50  1  0  0  0  0
 23 24  1  0  0  0  0
 23 25  1  0  0  0  0
 24 51  1  0  0  0  0
 24 52  1  0  0  0  0
 24 53  1  0  0  0  0
 25 54  1  0  0  0  0
 25 55  1  0  0  0  0
 25 56  1  0  0  0  0
 26 27  2  0  0  0  0
 26 32  1  0  0  0  0
 27 28  1  0  0  0  0
 27 33  1  0  0  0  0
 28 29  2  0  0  0  0
 28 57  1  0  0  0  0
 29 30  1  0  0  0  0
 29 58  1  0  0  0  0
 30 31  1  0  0  0  0
 30 32  2  0  0  0  0
 32 59  1  0  0  0  0
 33 34  2  0  0  0  0
M  END
$$$$
