
 OpenBabel07202414153D

 58 59  0  0  1  0  0  0  0  0999 V2000
   12.6741    0.3657   -0.9768 C   0  0  0  0  0  0  0  0  0  0  0  0
   11.6960    1.8514   -0.6203 S   0  0  0  0  0  0  0  0  0  0  0  0
   10.1070    1.0513   -0.1805 C   0  0  0  0  0  0  0  0  0  0  0  0
    9.0526    2.0840    0.2637 C   0  0  0  0  0  0  0  0  0  0  0  0
    8.6444    3.0129   -0.7877 N   0  0  0  0  0  0  0  0  0  0  0  0
    7.6303    2.6968   -1.6686 C   0  0  0  0  0  0  0  0  0  0  0  0
    6.9751    1.6596   -1.5307 O   0  0  0  0  0  0  0  0  0  0  0  0
    7.4170    3.6123   -2.9100 C   0  0  3  0  0  0  0  0  0  0  0  0
    6.9910    5.0172   -2.6035 N   0  0  0  0  0  0  0  0  0  0  0  0
    7.7910    6.1213   -2.3166 C   0  0  0  0  0  0  0  0  0  0  0  0
    7.3573    7.2114   -1.9355 O   0  0  0  0  0  0  0  0  0  0  0  0
    9.2598    6.0052   -2.4668 C   0  0  0  0  0  0  0  0  0  0  0  0
   10.0490    6.4230   -1.4690 C   0  0  0  0  0  0  0  0  0  0  0  0
    5.5667    5.2377   -2.5306 C   0  0  0  0  0  0  0  0  0  0  0  0
    4.9843    6.2414   -3.3092 C   0  0  0  0  0  0  0  0  0  0  0  0
    3.6139    6.5260   -3.2225 C   0  0  0  0  0  0  0  0  0  0  0  0
    2.7739    5.8374   -2.3352 C   0  0  0  0  0  0  0  0  0  0  0  0
    1.2745    6.1738   -2.1954 C   0  0  0  0  0  0  0  0  0  0  0  0
    0.7955    7.2747   -3.1728 C   0  0  0  0  0  0  0  0  0  0  0  0
    0.4210    4.9182   -2.4745 C   0  0  0  0  0  0  0  0  0  0  0  0
    0.9625    6.6778   -0.7690 C   0  0  0  0  0  0  0  0  0  0  0  0
    3.3721    4.8229   -1.5608 C   0  0  0  0  0  0  0  0  0  0  0  0
    4.7424    4.5111   -1.6689 C   0  0  0  0  0  0  0  0  0  0  0  0
    8.4978    3.4572   -3.9798 C   0  0  0  0  0  0  0  0  0  0  0  0
    9.6098    2.6137   -3.8386 C   0  0  0  0  0  0  0  0  0  0  0  0
   10.5725    2.5134   -4.8411 C   0  0  0  0  0  0  0  0  0  0  0  0
   10.3849    3.2569   -5.9887 C   0  0  0  0  0  0  0  0  0  0  0  0
    9.3202    4.0618   -6.1870 N   0  0  0  0  0  0  0  0  0  0  0  0
    8.3989    4.1304   -5.1939 C   0  0  0  0  0  0  0  0  0  0  0  0
   13.6828    0.6639   -1.2779 H   0  0  0  0  0  0  0  0  0  0  0  0
   12.2257   -0.2034   -1.7955 H   0  0  0  0  0  0  0  0  0  0  0  0
   12.7538   -0.2663   -0.0883 H   0  0  0  0  0  0  0  0  0  0  0  0
   10.2944    0.3520    0.6414 H   0  0  0  0  0  0  0  0  0  0  0  0
    9.7506    0.4793   -1.0435 H   0  0  0  0  0  0  0  0  0  0  0  0
    9.4263    2.6782    1.1020 H   0  0  0  0  0  0  0  0  0  0  0  0
    8.1682    1.5398    0.6132 H   0  0  0  0  0  0  0  0  0  0  0  0
    9.2824    3.7686   -1.0084 H   0  0  0  0  0  0  0  0  0  0  0  0
    6.5434    3.1560   -3.4033 H   0  0  0  0  0  0  0  0  0  0  0  0
    9.6743    5.7271   -3.4249 H   0  0  0  0  0  0  0  0  0  0  0  0
    9.6321    6.7972   -0.5375 H   0  0  0  0  0  0  0  0  0  0  0  0
   11.1267    6.4448   -1.5876 H   0  0  0  0  0  0  0  0  0  0  0  0
    5.5921    6.8251   -3.9975 H   0  0  0  0  0  0  0  0  0  0  0  0
    3.2367    7.3165   -3.8660 H   0  0  0  0  0  0  0  0  0  0  0  0
    0.9487    6.9799   -4.2174 H   0  0  0  0  0  0  0  0  0  0  0  0
    1.3232    8.2210   -3.0036 H   0  0  0  0  0  0  0  0  0  0  0  0
   -0.2745    7.4806   -3.0488 H   0  0  0  0  0  0  0  0  0  0  0  0
    0.6149    4.5239   -3.4786 H   0  0  0  0  0  0  0  0  0  0  0  0
   -0.6498    5.1469   -2.4084 H   0  0  0  0  0  0  0  0  0  0  0  0
    0.6203    4.1149   -1.7573 H   0  0  0  0  0  0  0  0  0  0  0  0
    1.5263    7.5887   -0.5365 H   0  0  0  0  0  0  0  0  0  0  0  0
    1.2028    5.9330   -0.0032 H   0  0  0  0  0  0  0  0  0  0  0  0
   -0.1039    6.9158   -0.6620 H   0  0  0  0  0  0  0  0  0  0  0  0
    2.7793    4.2682   -0.8353 H   0  0  0  0  0  0  0  0  0  0  0  0
    5.1472    3.7463   -1.0123 H   0  0  0  0  0  0  0  0  0  0  0  0
    9.7575    2.0085   -2.9530 H   0  0  0  0  0  0  0  0  0  0  0  0
   11.4338    1.8751   -4.7243 H   0  0  0  0  0  0  0  0  0  0  0  0
   11.1039    3.2171   -6.8021 H   0  0  0  0  0  0  0  0  0  0  0  0
    7.5624    4.7898   -5.4108 H   0  0  0  0  0  0  0  0  0  0  0  0
  1  2  1  0  0  0  0
  1 30  1  0  0  0  0
  1 31  1  0  0  0  0
  1 32  1  0  0  0  0
  2  3  1  0  0  0  0
  3  4  1  0  0  0  0
  3 33  1  0  0  0  0
  3 34  1  0  0  0  0
  4  5  1  0  0  0  0
  4 35  1  0  0  0  0
  4 36  1  0  0  0  0
  5  6  1  0  0  0  0
  5 37  1  0  0  0  0
  6  7  2  0  0  0  0
  6  8  1  0  0  0  0
  8  9  1  0  0  0  0
  8 24  1  0  0  0  0
  8 38  1  0  0  0  0
  9 10  1  0  0  0  0
  9 14  1  0  0  0  0
 10 11  2  0  0  0  0
 10 12  1  0  0  0  0
 12 13  2  0  0  0  0
 12 39  1  0  0  0  0
 13 40  1  0  0  0  0
 13 41  1  0  0  0  0
 14 15  1  0  0  0  0
 14 23  2  0  0  0  0
 15 16  2  0  0  0  0
 15 42  1  0  0  0  0
 16 17  1  0  0  0  0
 16 43  1  0  0  0  0
 17 18  1  0  0  0  0
 17 22  2  0  0  0  0
 18 19  1  0  0  0  0
 18 20  1  0  0  0  0
 18 21  1  0  0  0  0
 19 44  1  0  0  0  0
 19 45  1  0  0  0  0
 19 46  1  0  0  0  0
 20 47  1  0  0  0  0
 20 48  1  0  0  0  0
 20 49  1  0  0  0  0
 21 50  1  0  0  0  0
 21 51  1  0  0  0  0
 21 52  1  0  0  0  0
 22 23  1  0  0  0  0
 22 53  1  0  0  0  0
 23 54  1  0  0  0  0
 24 25  1  0  0  0  0
 24 29  2  0  0  0  0
 25 26  2  0  0  0  0
 25 55  1  0  0  0  0
 26 27  1  0  0  0  0
 26 56  1  0  0  0  0
 27 28  2  0  0  0  0
 27 57  1  0  0  0  0
 28 29  1  0  0  0  0
 29 58  1  0  0  0  0
M  END
$$$$
