
 OpenBabel07202414113D

 45 48  0  0  1  0  0  0  0  0999 V2000
    1.5228    0.9346   -0.5574 C   0  0  0  0  0  0  0  0  0  0  0  0
    2.5486   -0.1512   -0.3165 C   0  0  0  0  0  0  0  0  0  0  0  0
    2.7307   -0.5196    0.8447 O   0  0  0  0  0  0  0  0  0  0  0  0
    3.1981   -0.6784   -1.4468 N   0  0  0  0  0  0  0  0  0  0  0  0
    2.8082   -0.2904   -2.8098 C   0  0  0  0  0  0  0  0  0  0  0  0
    2.7289   -1.4951   -3.7232 C   0  0  0  0  0  0  0  0  0  0  0  0
    4.1019   -2.1455   -3.8399 C   0  0  2  0  0  0  0  0  0  0  0  0
    3.9583   -3.5208   -4.5051 C   0  0  0  0  0  0  0  0  0  0  0  0
    4.4419   -3.7252   -5.6156 O   0  0  0  0  0  0  0  0  0  0  0  0
    3.2564   -4.4460   -3.7472 N   0  0  0  0  0  0  0  0  0  0  0  0
    3.1061   -5.8363   -3.9965 C   0  0  0  0  0  0  0  0  0  0  0  0
    3.7666   -6.4896   -5.0372 C   0  0  0  0  0  0  0  0  0  0  0  0
    3.7924   -7.8322   -5.2071 N   0  0  0  0  0  0  0  0  0  0  0  0
    3.0839   -8.5643   -4.3256 C   0  0  0  0  0  0  0  0  0  0  0  0
    2.2876   -8.0294   -3.3156 C   0  0  0  0  0  0  0  0  0  0  0  0
    1.4806   -8.8615   -2.5187 C   0  0  0  0  0  0  0  0  0  0  0  0
    0.6443   -8.3209   -1.5466 C   0  0  0  0  0  0  0  0  0  0  0  0
    0.6370   -6.9493   -1.3340 C   0  0  0  0  0  0  0  0  0  0  0  0
    1.4569   -6.1155   -2.1024 C   0  0  0  0  0  0  0  0  0  0  0  0
    2.2943   -6.6262   -3.1296 C   0  0  0  0  0  0  0  0  0  0  0  0
    4.8373   -2.2039   -2.5082 C   0  0  0  0  0  0  0  0  0  0  0  0
    6.0498   -2.9295   -2.4509 C   0  0  0  0  0  0  0  0  0  0  0  0
    6.7532   -3.0479   -1.2581 C   0  0  0  0  0  0  0  0  0  0  0  0
    8.2257   -3.9330   -1.2100 Cl  0  0  0  0  0  0  0  0  0  0  0  0
    6.2677   -2.4440   -0.1101 C   0  0  0  0  0  0  0  0  0  0  0  0
    5.0889   -1.6890   -0.1637 C   0  0  0  0  0  0  0  0  0  0  0  0
    4.3606   -1.5340   -1.3562 C   0  0  0  0  0  0  0  0  0  0  0  0
    1.1421    1.2899    0.4059 H   0  0  0  0  0  0  0  0  0  0  0  0
    0.6707    0.5432   -1.1183 H   0  0  0  0  0  0  0  0  0  0  0  0
    1.9789    1.7853   -1.0713 H   0  0  0  0  0  0  0  0  0  0  0  0
    3.5383    0.4445   -3.1704 H   0  0  0  0  0  0  0  0  0  0  0  0
    1.8330    0.1985   -2.8266 H   0  0  0  0  0  0  0  0  0  0  0  0
    2.3781   -1.1960   -4.7182 H   0  0  0  0  0  0  0  0  0  0  0  0
    1.9780   -2.1909   -3.3285 H   0  0  0  0  0  0  0  0  0  0  0  0
    4.7187   -1.5244   -4.5053 H   0  0  0  0  0  0  0  0  0  0  0  0
    2.9117   -4.1220   -2.8561 H   0  0  0  0  0  0  0  0  0  0  0  0
    4.3405   -5.9601   -5.7896 H   0  0  0  0  0  0  0  0  0  0  0  0
    3.1650   -9.6387   -4.4719 H   0  0  0  0  0  0  0  0  0  0  0  0
    1.4759   -9.9387   -2.6752 H   0  0  0  0  0  0  0  0  0  0  0  0
   -0.0071   -8.9686   -0.9654 H   0  0  0  0  0  0  0  0  0  0  0  0
   -0.0173   -6.5211   -0.5781 H   0  0  0  0  0  0  0  0  0  0  0  0
    1.3918   -5.0500   -1.9033 H   0  0  0  0  0  0  0  0  0  0  0  0
    6.4486   -3.4066   -3.3460 H   0  0  0  0  0  0  0  0  0  0  0  0
    6.8067   -2.5286    0.8304 H   0  0  0  0  0  0  0  0  0  0  0  0
    4.7972   -1.1977    0.7593 H   0  0  0  0  0  0  0  0  0  0  0  0
  1  2  1  0  0  0  0
  1 28  1  0  0  0  0
  1 29  1  0  0  0  0
  1 30  1  0  0  0  0
  2  3  2  0  0  0  0
  2  4  1  0  0  0  0
  4  5  1  0  0  0  0
  4 27  1  0  0  0  0
  5  6  1  0  0  0  0
  5 31  1  0  0  0  0
  5 32  1  0  0  0  0
  6  7  1  0  0  0  0
  6 33  1  0  0  0  0
  6 34  1  0  0  0  0
  7 21  1  0  0  0  0
  7  8  1  0  0  0  0
  7 35  1  6  0  0  0
  8  9  2  0  0  0  0
  8 10  1  0  0  0  0
 10 11  1  0  0  0  0
 10 36  1  0  0  0  0
 11 12  1  0  0  0  0
 11 20  2  0  0  0  0
 12 13  2  0  0  0  0
 12 37  1  0  0  0  0
 13 14  1  0  0  0  0
 14 15  2  0  0  0  0
 14 38  1  0  0  0  0
 15 16  1  0  0  0  0
 15 20  1  0  0  0  0
 16 17  2  0  0  0  0
 16 39  1  0  0  0  0
 17 18  1  0  0  0  0
 17 40  1  0  0  0  0
 18 19  2  0  0  0  0
 18 41  1  0  0  0  0
 19 20  1  0  0  0  0
 19 42  1  0  0  0  0
 21 22  1  0  0  0  0
 21 27  2  0  0  0  0
 22 23  2  0  0  0  0
 22 43  1  0  0  0  0
 23 24  1  0  0  0  0
 23 25  1  0  0  0  0
 25 26  2  0  0  0  0
 25 44  1  0  0  0  0
 26 27  1  0  0  0  0
 26 45  1  0  0  0  0
M  END
$$$$
