
 OpenBabel07202414183D

 39 42  0  0  1  0  0  0  0  0999 V2000
    2.6240   -6.5749    0.9032 Cl  0  0  0  0  0  0  0  0  0  0  0  0
    2.8949   -4.9747    0.3101 C   0  0  0  0  0  0  0  0  0  0  0  0
    1.7812   -4.2418   -0.1099 C   0  0  0  0  0  0  0  0  0  0  0  0
    1.9348   -2.9380   -0.5753 C   0  0  0  0  0  0  0  0  0  0  0  0
    3.2045   -2.3719   -0.6439 C   0  0  0  0  0  0  0  0  0  0  0  0
    4.3311   -3.1046   -0.2408 C   0  0  0  0  0  0  0  0  0  0  0  0
    4.1836   -4.4180    0.2540 C   0  0  0  0  0  0  0  0  0  0  0  0
    5.3869   -5.1673    0.7817 C   0  0  0  0  0  0  0  0  0  0  0  0
    6.6480   -4.5868    0.4044 O   0  0  0  0  0  0  0  0  0  0  0  0
    6.6691   -3.1678    0.6195 C   0  0  0  0  0  0  0  0  0  0  0  0
    5.7114   -2.4929   -0.3644 C   0  0  3  0  0  0  0  0  0  0  0  0
    6.2089   -2.5346   -1.8247 C   0  0  0  0  0  0  0  0  0  0  0  0
    5.9267   -1.6206   -2.5971 O   0  0  0  0  0  0  0  0  0  0  0  0
    6.9266   -3.6703   -2.1570 N   0  0  0  0  0  0  0  0  0  0  0  0
    7.5523   -3.9937   -3.3860 C   0  0  0  0  0  0  0  0  0  0  0  0
    7.3984   -3.2224   -4.5386 C   0  0  0  0  0  0  0  0  0  0  0  0
    7.9718   -3.4998   -5.7346 N   0  0  0  0  0  0  0  0  0  0  0  0
    8.7516   -4.5981   -5.7883 C   0  0  0  0  0  0  0  0  0  0  0  0
    9.0029   -5.4458   -4.7104 C   0  0  0  0  0  0  0  0  0  0  0  0
    9.8555   -6.5572   -4.8500 C   0  0  0  0  0  0  0  0  0  0  0  0
   10.1221   -7.3911   -3.7682 C   0  0  0  0  0  0  0  0  0  0  0  0
    9.5321   -7.1306   -2.5417 C   0  0  0  0  0  0  0  0  0  0  0  0
    8.6764   -6.0326   -2.3936 C   0  0  0  0  0  0  0  0  0  0  0  0
    8.3870   -5.1508   -3.4694 C   0  0  0  0  0  0  0  0  0  0  0  0
    0.7870   -4.6807   -0.0729 H   0  0  0  0  0  0  0  0  0  0  0  0
    1.0665   -2.3654   -0.8925 H   0  0  0  0  0  0  0  0  0  0  0  0
    3.3151   -1.3557   -1.0216 H   0  0  0  0  0  0  0  0  0  0  0  0
    5.4008   -6.1888    0.3889 H   0  0  0  0  0  0  0  0  0  0  0  0
    5.3459   -5.2122    1.8760 H   0  0  0  0  0  0  0  0  0  0  0  0
    7.6970   -2.8247    0.4591 H   0  0  0  0  0  0  0  0  0  0  0  0
    6.4059   -2.9547    1.6631 H   0  0  0  0  0  0  0  0  0  0  0  0
    5.6662   -1.4325   -0.0817 H   0  0  0  0  0  0  0  0  0  0  0  0
    7.0305   -4.3481   -1.4083 H   0  0  0  0  0  0  0  0  0  0  0  0
    6.7839   -2.3296   -4.5625 H   0  0  0  0  0  0  0  0  0  0  0  0
    9.1920   -4.7833   -6.7647 H   0  0  0  0  0  0  0  0  0  0  0  0
   10.3261   -6.7740   -5.8073 H   0  0  0  0  0  0  0  0  0  0  0  0
   10.7945   -8.2382   -3.8828 H   0  0  0  0  0  0  0  0  0  0  0  0
    9.7378   -7.7739   -1.6889 H   0  0  0  0  0  0  0  0  0  0  0  0
    8.2530   -5.8809   -1.4056 H   0  0  0  0  0  0  0  0  0  0  0  0
  1  2  1  0  0  0  0
  2  3  1  0  0  0  0
  2  7  2  0  0  0  0
  3  4  2  0  0  0  0
  3 25  1  0  0  0  0
  4  5  1  0  0  0  0
  4 26  1  0  0  0  0
  5  6  2  0  0  0  0
  5 27  1  0  0  0  0
  6  7  1  0  0  0  0
  6 11  1  0  0  0  0
  7  8  1  0  0  0  0
  8  9  1  0  0  0  0
  8 28  1  0  0  0  0
  8 29  1  0  0  0  0
  9 10  1  0  0  0  0
 10 11  1  0  0  0  0
 10 30  1  0  0  0  0
 10 31  1  0  0  0  0
 11 12  1  0  0  0  0
 11 32  1  0  0  0  0
 12 13  2  0  0  0  0
 12 14  1  0  0  0  0
 14 15  1  0  0  0  0
 14 33  1  0  0  0  0
 15 16  1  0  0  0  0
 15 24  2  0  0  0  0
 16 17  2  0  0  0  0
 16 34  1  0  0  0  0
 17 18  1  0  0  0  0
 18 19  2  0  0  0  0
 18 35  1  0  0  0  0
 19 20  1  0  0  0  0
 19 24  1  0  0  0  0
 20 21  2  0  0  0  0
 20 36  1  0  0  0  0
 21 22  1  0  0  0  0
 21 37  1  0  0  0  0
 22 23  2  0  0  0  0
 22 38  1  0  0  0  0
 23 24  1  0  0  0  0
 23 39  1  0  0  0  0
M  END
$$$$
