
 OpenBabel07202414133D

 67 71  0  0  1  0  0  0  0  0999 V2000
    3.3306    0.8746    1.1889 C   0  0  0  0  0  0  0  0  0  0  0  0
    4.8259    0.7625    0.9493 C   0  0  0  0  0  0  0  0  0  0  0  0
    5.1323    0.0414   -0.3473 C   0  0  0  0  0  0  0  0  0  0  0  0
    4.2713   -0.3682   -1.1169 O   0  0  0  0  0  0  0  0  0  0  0  0
    6.4876   -0.1326   -0.5621 N   0  0  0  0  0  0  0  0  0  0  0  0
    6.9818   -0.6755   -1.8114 C   0  0  0  0  0  0  0  0  0  0  0  0
    6.5561   -2.1305   -2.1134 C   0  0  2  0  0  0  0  0  0  0  0  0
    7.0430   -3.1253   -1.0584 C   0  0  0  0  0  0  0  0  0  0  0  0
    8.2607   -3.6587   -1.6136 N   0  0  0  0  0  0  0  0  0  0  0  0
    9.2708   -4.2518   -0.8240 C   0  0  0  0  0  0  0  0  0  0  0  0
    9.0414   -5.4117   -0.0458 C   0  0  0  0  0  0  0  0  0  0  0  0
   10.1003   -5.9054    0.7503 C   0  0  0  0  0  0  0  0  0  0  0  0
   11.3222   -5.2190    0.7161 C   0  0  0  0  0  0  0  0  0  0  0  0
   11.5717   -4.1314   -0.0440 N   0  0  0  0  0  0  0  0  0  0  0  0
   10.5496   -3.6897   -0.8086 C   0  0  0  0  0  0  0  0  0  0  0  0
    9.9289   -7.0633    1.5244 C   0  0  0  0  0  0  0  0  0  0  0  0
    8.7222   -7.7638    1.5028 C   0  0  0  0  0  0  0  0  0  0  0  0
    7.6816   -7.3163    0.6997 C   0  0  0  0  0  0  0  0  0  0  0  0
    7.8441   -6.1625   -0.0696 C   0  0  0  0  0  0  0  0  0  0  0  0
    8.4008   -3.4024   -2.9725 C   0  0  0  0  0  0  0  0  0  0  0  0
    9.3442   -3.7323   -3.6744 O   0  0  0  0  0  0  0  0  0  0  0  0
    7.1340   -2.7063   -3.4572 C   0  0  1  0  0  0  0  0  0  0  0  0
    6.1377   -3.7234   -4.0459 C   0  0  0  0  0  0  0  0  0  0  0  0
    6.5759   -4.2080   -5.4219 C   0  0  0  0  0  0  0  0  0  0  0  0
    6.7728   -3.0434   -6.3865 C   0  0  0  0  0  0  0  0  0  0  0  0
    7.7671   -2.0626   -5.8647 N   0  0  0  0  0  0  0  0  0  0  0  0
    8.0026   -0.7117   -6.9359 S   0  0  0  0  0  0  0  0  0  0  0  0
    7.8306   -1.1836   -8.2939 O   0  0  0  0  0  0  0  0  0  0  0  0
    7.1909    0.3651   -6.4194 O   0  0  0  0  0  0  0  0  0  0  0  0
    9.7558   -0.3317   -6.7039 C   0  0  0  0  0  0  0  0  0  0  0  0
   10.0239    0.9468   -7.4790 C   0  0  0  0  0  0  0  0  0  0  0  0
    9.3825    2.1392   -6.9636 C   0  0  0  0  0  0  0  0  0  0  0  0
    8.9304    3.1147   -6.5410 N   0  0  0  0  0  0  0  0  0  0  0  0
   11.4417    1.2027   -7.9972 C   0  0  0  0  0  0  0  0  0  0  0  0
   10.3440    0.8825   -8.9645 C   0  0  0  0  0  0  0  0  0  0  0  0
    7.4782   -1.6116   -4.4674 C   0  0  0  0  0  0  0  0  0  0  0  0
    3.1302    1.3601    2.1483 H   0  0  0  0  0  0  0  0  0  0  0  0
    2.8608   -0.1148    1.2001 H   0  0  0  0  0  0  0  0  0  0  0  0
    2.8510    1.4623    0.3989 H   0  0  0  0  0  0  0  0  0  0  0  0
    5.2885    0.2058    1.7717 H   0  0  0  0  0  0  0  0  0  0  0  0
    5.2713    1.7628    0.9132 H   0  0  0  0  0  0  0  0  0  0  0  0
    7.0929    0.5265   -0.0847 H   0  0  0  0  0  0  0  0  0  0  0  0
    8.0726   -0.5822   -1.7906 H   0  0  0  0  0  0  0  0  0  0  0  0
    6.6002   -0.0045   -2.5889 H   0  0  0  0  0  0  0  0  0  0  0  0
    5.4617   -2.1646   -2.1357 H   0  0  0  0  0  0  0  0  0  0  0  0
    6.3114   -3.9301   -0.9526 H   0  0  0  0  0  0  0  0  0  0  0  0
    7.2217   -2.6764   -0.0760 H   0  0  0  0  0  0  0  0  0  0  0  0
   12.1682   -5.5581    1.3053 H   0  0  0  0  0  0  0  0  0  0  0  0
   10.7839   -2.8110   -1.4026 H   0  0  0  0  0  0  0  0  0  0  0  0
   10.7440   -7.4490    2.1357 H   0  0  0  0  0  0  0  0  0  0  0  0
    8.6025   -8.6670    2.0923 H   0  0  0  0  0  0  0  0  0  0  0  0
    6.7488   -7.8700    0.6511 H   0  0  0  0  0  0  0  0  0  0  0  0
    7.0288   -5.8874   -0.7300 H   0  0  0  0  0  0  0  0  0  0  0  0
    5.1500   -3.2514   -4.1464 H   0  0  0  0  0  0  0  0  0  0  0  0
    6.0032   -4.5884   -3.3845 H   0  0  0  0  0  0  0  0  0  0  0  0
    5.8139   -4.8867   -5.8246 H   0  0  0  0  0  0  0  0  0  0  0  0
    7.4993   -4.7914   -5.3343 H   0  0  0  0  0  0  0  0  0  0  0  0
    5.8155   -2.5419   -6.5683 H   0  0  0  0  0  0  0  0  0  0  0  0
    7.1394   -3.4552   -7.3331 H   0  0  0  0  0  0  0  0  0  0  0  0
   10.3297   -1.1807   -7.0877 H   0  0  0  0  0  0  0  0  0  0  0  0
    9.9553   -0.1927   -5.6379 H   0  0  0  0  0  0  0  0  0  0  0  0
   12.2172    0.4610   -7.8503 H   0  0  0  0  0  0  0  0  0  0  0  0
   11.8199    2.2232   -7.9934 H   0  0  0  0  0  0  0  0  0  0  0  0
   10.3873   -0.0806   -9.4624 H   0  0  0  0  0  0  0  0  0  0  0  0
    9.9786    1.6789   -9.6068 H   0  0  0  0  0  0  0  0  0  0  0  0
    6.6194   -0.9345   -4.5113 H   0  0  0  0  0  0  0  0  0  0  0  0
    8.3583   -1.0592   -4.1171 H   0  0  0  0  0  0  0  0  0  0  0  0
  1  2  1  0  0  0  0
  1 37  1  0  0  0  0
  1 38  1  0  0  0  0
  1 39  1  0  0  0  0
  2  3  1  0  0  0  0
  2 40  1  0  0  0  0
  2 41  1  0  0  0  0
  3  4  2  0  0  0  0
  3  5  1  0  0  0  0
  5  6  1  0  0  0  0
  5 42  1  0  0  0  0
  6 43  1  0  0  0  0
  6 44  1  0  0  0  0
  7  8  1  0  0  0  0
  7 22  1  0  0  0  0
  7  6  1  0  0  0  0
  7 45  1  6  0  0  0
  8  9  1  0  0  0  0
  8 46  1  0  0  0  0
  8 47  1  0  0  0  0
  9 10  1  0  0  0  0
  9 20  1  0  0  0  0
 10 11  2  0  0  0  0
 10 15  1  0  0  0  0
 11 12  1  0  0  0  0
 11 19  1  0  0  0  0
 12 13  2  0  0  0  0
 12 16  1  0  0  0  0
 13 14  1  0  0  0  0
 13 48  1  0  0  0  0
 14 15  2  0  0  0  0
 15 49  1  0  0  0  0
 16 17  2  0  0  0  0
 16 50  1  0  0  0  0
 17 18  1  0  0  0  0
 17 51  1  0  0  0  0
 18 19  2  0  0  0  0
 18 52  1  0  0  0  0
 19 53  1  0  0  0  0
 20 21  2  0  0  0  0
 22 20  1  1  0  0  0
 22 23  1  0  0  0  0
 22 36  1  0  0  0  0
 23 24  1  0  0  0  0
 23 54  1  0  0  0  0
 23 55  1  0  0  0  0
 24 25  1  0  0  0  0
 24 56  1  0  0  0  0
 24 57  1  0  0  0  0
 25 26  1  0  0  0  0
 25 58  1  0  0  0  0
 25 59  1  0  0  0  0
 26 27  1  0  0  0  0
 26 36  1  0  0  0  0
 27 28  2  0  0  0  0
 27 29  2  0  0  0  0
 27 30  1  0  0  0  0
 30 31  1  0  0  0  0
 30 60  1  0  0  0  0
 30 61  1  0  0  0  0
 31 32  1  0  0  0  0
 31 34  1  0  0  0  0
 31 35  1  0  0  0  0
 32 33  3  0  0  0  0
 34 35  1  0  0  0  0
 34 62  1  0  0  0  0
 34 63  1  0  0  0  0
 35 64  1  0  0  0  0
 35 65  1  0  0  0  0
 36 66  1  0  0  0  0
 36 67  1  0  0  0  0
M  END
$$$$
