
 OpenBabel07202414173D

 68 73  0  0  1  0  0  0  0  0999 V2000
    1.0746    0.1194   -0.1147 Cl  0  0  0  0  0  0  0  0  0  0  0  0
    2.7900    0.0079   -0.0428 C   0  0  0  0  0  0  0  0  0  0  0  0
    3.5587    1.1618   -0.1511 C   0  0  0  0  0  0  0  0  0  0  0  0
    4.9460    1.0649   -0.0915 C   0  0  0  0  0  0  0  0  0  0  0  0
    5.5591   -0.1808    0.0823 C   0  0  0  0  0  0  0  0  0  0  0  0
    4.8007   -1.3597    0.1706 C   0  0  0  0  0  0  0  0  0  0  0  0
    3.3970   -1.2410    0.1191 C   0  0  0  0  0  0  0  0  0  0  0  0
    5.4740   -2.7247    0.3929 C   0  0  3  0  0  0  0  0  0  0  0  0
    4.8895   -3.7383   -0.5389 N   0  0  0  0  0  0  0  0  0  0  0  0
    5.4318   -4.9845   -0.7623 C   0  0  0  0  0  0  0  0  0  0  0  0
    6.3590   -5.4261   -0.0881 O   0  0  0  0  0  0  0  0  0  0  0  0
    4.8040   -5.8090   -1.8986 C   0  0  3  0  0  0  0  0  0  0  0  0
    5.8946   -6.3777   -2.7886 C   0  0  0  0  0  0  0  0  0  0  0  0
    5.1819   -6.5745   -4.0983 C   0  0  0  0  0  0  0  0  0  0  0  0
    4.1925   -5.4118   -4.1259 C   0  0  3  0  0  0  0  0  0  0  0  0
    2.9519   -5.7257   -5.0141 C   0  0  0  0  0  0  0  0  0  0  0  0
    2.9434   -6.7146   -5.7508 O   0  0  0  0  0  0  0  0  0  0  0  0
    1.9197   -4.8155   -4.9932 N   0  0  0  0  0  0  0  0  0  0  0  0
    1.7830   -3.6253   -4.1837 C   0  0  0  0  0  0  0  0  0  0  0  0
    0.2875   -3.4866   -4.0187 C   0  0  0  0  0  0  0  0  0  0  0  0
   -0.2449   -3.9170   -5.3795 C   0  0  0  0  0  0  0  0  0  0  0  0
    0.7541   -4.9703   -5.8612 C   0  0  0  0  0  0  0  0  0  0  0  0
    3.9359   -5.0690   -2.7552 O   0  0  0  0  0  0  0  0  0  0  0  0
    5.2464   -3.1731    1.9156 C   0  0  0  0  0  0  0  0  0  0  0  0
    4.5884   -2.4932    2.7038 O   0  0  0  0  0  0  0  0  0  0  0  0
    5.8967   -4.3416    2.2751 N   0  0  0  0  0  0  0  0  0  0  0  0
    6.0812   -4.8810    3.5776 C   0  0  0  0  0  0  0  0  0  0  0  0
    5.3916   -4.4153    4.6975 C   0  0  0  0  0  0  0  0  0  0  0  0
    5.6787   -4.7654    5.9746 N   0  0  0  0  0  0  0  0  0  0  0  0
    6.6593   -5.6770    6.1423 C   0  0  0  0  0  0  0  0  0  0  0  0
    7.3096   -6.3370    5.1031 C   0  0  0  0  0  0  0  0  0  0  0  0
    8.2066   -7.3923    5.3591 C   0  0  0  0  0  0  0  0  0  0  0  0
    8.8557   -8.0469    4.3158 C   0  0  0  0  0  0  0  0  0  0  0  0
    8.6484   -7.6244    3.0118 C   0  0  0  0  0  0  0  0  0  0  0  0
    7.7621   -6.5749    2.7510 C   0  0  0  0  0  0  0  0  0  0  0  0
    7.0369   -5.9195    3.7793 C   0  0  0  0  0  0  0  0  0  0  0  0
    6.9787   -2.5616    0.0681 C   0  0  0  0  0  0  0  0  0  0  0  0
    7.5424   -1.2930    0.6716 C   0  0  0  0  0  0  0  0  0  0  0  0
    6.9240   -0.1354    0.1265 O   0  0  0  0  0  0  0  0  0  0  0  0
    3.0909    2.1355   -0.2692 H   0  0  0  0  0  0  0  0  0  0  0  0
    5.5558    1.9628   -0.1629 H   0  0  0  0  0  0  0  0  0  0  0  0
    2.7698   -2.1218    0.2407 H   0  0  0  0  0  0  0  0  0  0  0  0
    4.2774   -3.4032   -1.2779 H   0  0  0  0  0  0  0  0  0  0  0  0
    4.2131   -6.6120   -1.4398 H   0  0  0  0  0  0  0  0  0  0  0  0
    6.3301   -7.2980   -2.3909 H   0  0  0  0  0  0  0  0  0  0  0  0
    6.7086   -5.6535   -2.9174 H   0  0  0  0  0  0  0  0  0  0  0  0
    4.6673   -7.5434   -4.0943 H   0  0  0  0  0  0  0  0  0  0  0  0
    5.8577   -6.5628   -4.9552 H   0  0  0  0  0  0  0  0  0  0  0  0
    4.6791   -4.5385   -4.5779 H   0  0  0  0  0  0  0  0  0  0  0  0
    2.2123   -2.7901   -4.7492 H   0  0  0  0  0  0  0  0  0  0  0  0
    2.2822   -3.6858   -3.2154 H   0  0  0  0  0  0  0  0  0  0  0  0
   -0.0156   -2.4738   -3.7349 H   0  0  0  0  0  0  0  0  0  0  0  0
   -0.0695   -4.1804   -3.2485 H   0  0  0  0  0  0  0  0  0  0  0  0
   -0.2526   -3.0607   -6.0646 H   0  0  0  0  0  0  0  0  0  0  0  0
   -1.2649   -4.3083   -5.3213 H   0  0  0  0  0  0  0  0  0  0  0  0
    1.0540   -4.7815   -6.8968 H   0  0  0  0  0  0  0  0  0  0  0  0
    0.3610   -5.9890   -5.7873 H   0  0  0  0  0  0  0  0  0  0  0  0
    6.3731   -4.8226    1.5166 H   0  0  0  0  0  0  0  0  0  0  0  0
    4.5459   -3.7387    4.6196 H   0  0  0  0  0  0  0  0  0  0  0  0
    6.9175   -5.8698    7.1818 H   0  0  0  0  0  0  0  0  0  0  0  0
    8.3821   -7.7320    6.3775 H   0  0  0  0  0  0  0  0  0  0  0  0
    9.5174   -8.8841    4.5168 H   0  0  0  0  0  0  0  0  0  0  0  0
    9.1634   -8.1100    2.1883 H   0  0  0  0  0  0  0  0  0  0  0  0
    7.6422   -6.3022    1.7091 H   0  0  0  0  0  0  0  0  0  0  0  0
    7.1032   -2.5083   -1.0228 H   0  0  0  0  0  0  0  0  0  0  0  0
    7.5819   -3.4045    0.4151 H   0  0  0  0  0  0  0  0  0  0  0  0
    8.6072   -1.2261    0.4192 H   0  0  0  0  0  0  0  0  0  0  0  0
    7.4700   -1.2765    1.7646 H   0  0  0  0  0  0  0  0  0  0  0  0
  1  2  1  0  0  0  0
  2  3  1  0  0  0  0
  2  7  2  0  0  0  0
  3  4  2  0  0  0  0
  3 40  1  0  0  0  0
  4  5  1  0  0  0  0
  4 41  1  0  0  0  0
  5  6  2  0  0  0  0
  5 39  1  0  0  0  0
  6  7  1  0  0  0  0
  6  8  1  0  0  0  0
  7 42  1  0  0  0  0
  8  9  1  0  0  0  0
  8 24  1  0  0  0  0
  8 37  1  0  0  0  0
  9 10  1  0  0  0  0
  9 43  1  0  0  0  0
 10 11  2  0  0  0  0
 10 12  1  0  0  0  0
 12 13  1  0  0  0  0
 12 23  1  0  0  0  0
 12 44  1  0  0  0  0
 13 14  1  0  0  0  0
 13 45  1  0  0  0  0
 13 46  1  0  0  0  0
 14 15  1  0  0  0  0
 14 47  1  0  0  0  0
 14 48  1  0  0  0  0
 15 16  1  0  0  0  0
 15 23  1  0  0  0  0
 15 49  1  0  0  0  0
 16 17  2  0  0  0  0
 16 18  1  0  0  0  0
 18 19  1  0  0  0  0
 18 22  1  0  0  0  0
 19 20  1  0  0  0  0
 19 50  1  0  0  0  0
 19 51  1  0  0  0  0
 20 21  1  0  0  0  0
 20 52  1  0  0  0  0
 20 53  1  0  0  0  0
 21 22  1  0  0  0  0
 21 54  1  0  0  0  0
 21 55  1  0  0  0  0
 22 56  1  0  0  0  0
 22 57  1  0  0  0  0
 24 25  2  0  0  0  0
 24 26  1  0  0  0  0
 26 27  1  0  0  0  0
 26 58  1  0  0  0  0
 27 28  1  0  0  0  0
 27 36  2  0  0  0  0
 28 29  2  0  0  0  0
 28 59  1  0  0  0  0
 29 30  1  0  0  0  0
 30 31  2  0  0  0  0
 30 60  1  0  0  0  0
 31 32  1  0  0  0  0
 31 36  1  0  0  0  0
 32 33  2  0  0  0  0
 32 61  1  0  0  0  0
 33 34  1  0  0  0  0
 33 62  1  0  0  0  0
 34 35  2  0  0  0  0
 34 63  1  0  0  0  0
 35 36  1  0  0  0  0
 35 64  1  0  0  0  0
 37 38  1  0  0  0  0
 37 65  1  0  0  0  0
 37 66  1  0  0  0  0
 38 39  1  0  0  0  0
 38 67  1  0  0  0  0
 38 68  1  0  0  0  0
M  END
$$$$
