
 OpenBabel07202414193D

 41 45  0  0  1  0  0  0  0  0999 V2000
    1.1691   -0.4381    0.2660 O   0  0  0  0  0  0  0  0  0  0  0  0
    2.3097   -0.0036    0.3349 C   0  0  0  0  0  0  0  0  0  0  0  0
    3.1849   -0.1392   -0.7115 N   0  0  0  0  0  0  0  0  0  0  0  0
    4.5579   -0.0572   -0.2608 C   0  0  2  0  0  0  0  0  0  0  0  0
    5.2629    1.0533   -1.0365 C   0  0  0  0  0  0  0  0  0  0  0  0
    6.7643    0.9110   -0.8737 C   0  0  0  0  0  0  0  0  0  0  0  0
    7.2376   -0.3275   -1.4015 O   0  0  0  0  0  0  0  0  0  0  0  0
    6.5216   -1.4346   -1.0361 C   0  0  0  0  0  0  0  0  0  0  0  0
    7.1112   -2.6584   -1.3614 C   0  0  0  0  0  0  0  0  0  0  0  0
    6.4445   -3.8535   -1.1015 C   0  0  0  0  0  0  0  0  0  0  0  0
    5.1930   -3.8283   -0.4953 C   0  0  0  0  0  0  0  0  0  0  0  0
    4.6048   -2.6072   -0.1594 C   0  0  0  0  0  0  0  0  0  0  0  0
    5.2494   -1.3890   -0.4528 C   0  0  0  0  0  0  0  0  0  0  0  0
    4.3308    0.3451    1.2254 C   0  0  0  0  0  0  0  0  0  0  0  0
    5.2182    0.5056    2.0506 O   0  0  0  0  0  0  0  0  0  0  0  0
    2.9743    0.5142    1.4167 N   0  0  0  0  0  0  0  0  0  0  0  0
    2.2938    0.7639    2.6374 C   0  0  0  0  0  0  0  0  0  0  0  0
    2.7384    0.2153    3.8363 C   0  0  0  0  0  0  0  0  0  0  0  0
    1.9774    0.1311    4.9535 N   0  0  0  0  0  0  0  0  0  0  0  0
    0.7300    0.6473    4.8792 C   0  0  0  0  0  0  0  0  0  0  0  0
    0.2323    1.3552    3.7893 C   0  0  0  0  0  0  0  0  0  0  0  0
   -1.0440    1.9613    3.8076 C   0  0  0  0  0  0  0  0  0  0  0  0
   -1.4835    2.7283    2.7318 C   0  0  0  0  0  0  0  0  0  0  0  0
   -0.6651    2.9001    1.6248 C   0  0  0  0  0  0  0  0  0  0  0  0
    0.5783    2.2661    1.5813 C   0  0  0  0  0  0  0  0  0  0  0  0
    1.0441    1.4508    2.6453 C   0  0  0  0  0  0  0  0  0  0  0  0
    2.8982   -0.7207   -1.4881 H   0  0  0  0  0  0  0  0  0  0  0  0
    4.9344    2.0479   -0.7121 H   0  0  0  0  0  0  0  0  0  0  0  0
    5.0194    0.9650   -2.1052 H   0  0  0  0  0  0  0  0  0  0  0  0
    7.0855    1.0096    0.1692 H   0  0  0  0  0  0  0  0  0  0  0  0
    7.2627    1.7058   -1.4396 H   0  0  0  0  0  0  0  0  0  0  0  0
    8.0873   -2.6770   -1.8401 H   0  0  0  0  0  0  0  0  0  0  0  0
    6.8979   -4.8012   -1.3808 H   0  0  0  0  0  0  0  0  0  0  0  0
    4.6632   -4.7583   -0.3035 H   0  0  0  0  0  0  0  0  0  0  0  0
    3.6136   -2.6249    0.2913 H   0  0  0  0  0  0  0  0  0  0  0  0
    3.7155   -0.2510    3.9337 H   0  0  0  0  0  0  0  0  0  0  0  0
    0.1232    0.4881    5.7691 H   0  0  0  0  0  0  0  0  0  0  0  0
   -1.6927    1.8563    4.6763 H   0  0  0  0  0  0  0  0  0  0  0  0
   -2.4583    3.2108    2.7652 H   0  0  0  0  0  0  0  0  0  0  0  0
   -0.9867    3.5225    0.7931 H   0  0  0  0  0  0  0  0  0  0  0  0
    1.1966    2.4374    0.7028 H   0  0  0  0  0  0  0  0  0  0  0  0
  1  2  2  0  0  0  0
  2  3  1  0  0  0  0
  2 16  1  0  0  0  0
  3  4  1  0  0  0  0
  3 27  1  0  0  0  0
  4  5  1  0  0  0  0
  4 13  1  6  0  0  0
  4 14  1  0  0  0  0
  5  6  1  0  0  0  0
  5 28  1  0  0  0  0
  5 29  1  0  0  0  0
  6  7  1  0  0  0  0
  6 30  1  0  0  0  0
  6 31  1  0  0  0  0
  7  8  1  0  0  0  0
  8  9  1  0  0  0  0
  8 13  2  0  0  0  0
  9 10  2  0  0  0  0
  9 32  1  0  0  0  0
 10 11  1  0  0  0  0
 10 33  1  0  0  0  0
 11 12  2  0  0  0  0
 11 34  1  0  0  0  0
 12 13  1  0  0  0  0
 12 35  1  0  0  0  0
 14 15  2  0  0  0  0
 14 16  1  0  0  0  0
 16 17  1  0  0  0  0
 17 18  1  0  0  0  0
 17 26  2  0  0  0  0
 18 19  2  0  0  0  0
 18 36  1  0  0  0  0
 19 20  1  0  0  0  0
 20 21  2  0  0  0  0
 20 37  1  0  0  0  0
 21 22  1  0  0  0  0
 21 26  1  0  0  0  0
 22 23  2  0  0  0  0
 22 38  1  0  0  0  0
 23 24  1  0  0  0  0
 23 39  1  0  0  0  0
 24 25  2  0  0  0  0
 24 40  1  0  0  0  0
 25 26  1  0  0  0  0
 25 41  1  0  0  0  0
M  END
$$$$
