
 OpenBabel07202414143D

 42 45  0  0  1  0  0  0  0  0999 V2000
    3.1167    1.1946   -0.3073 C   0  0  0  0  0  0  0  0  0  0  0  0
    2.3067    0.1243    0.1821 O   0  0  0  0  0  0  0  0  0  0  0  0
    2.9291   -0.7702    1.1331 C   0  0  3  0  0  0  0  0  0  0  0  0
    3.1936   -0.0110    2.4861 C   0  0  0  0  0  0  0  0  0  0  0  0
    4.0826   -0.3254    3.2735 O   0  0  0  0  0  0  0  0  0  0  0  0
    2.2863    1.0314    2.6639 N   0  0  0  0  0  0  0  0  0  0  0  0
    2.1481    1.9195    3.7560 C   0  0  0  0  0  0  0  0  0  0  0  0
    2.8705    1.7819    4.9387 C   0  0  0  0  0  0  0  0  0  0  0  0
    2.6747    2.5402    6.0448 N   0  0  0  0  0  0  0  0  0  0  0  0
    1.7292    3.4989    5.9702 C   0  0  0  0  0  0  0  0  0  0  0  0
    0.9912    3.7888    4.8252 C   0  0  0  0  0  0  0  0  0  0  0  0
    0.0709    4.8475    4.7931 C   0  0  0  0  0  0  0  0  0  0  0  0
   -0.5966    5.1110    3.6121 C   0  0  0  0  0  0  0  0  0  0  0  0
   -0.4214    4.3936    2.4881 N   0  0  0  0  0  0  0  0  0  0  0  0
    0.4587    3.3634    2.5514 C   0  0  0  0  0  0  0  0  0  0  0  0
    1.2079    2.9896    3.6840 C   0  0  0  0  0  0  0  0  0  0  0  0
    4.2390   -1.3764    0.5977 C   0  0  0  0  0  0  0  0  0  0  0  0
    3.9086   -2.1966   -0.6380 C   0  0  0  0  0  0  0  0  0  0  0  0
    3.1482   -3.3527   -0.2978 O   0  0  0  0  0  0  0  0  0  0  0  0
    2.1253   -3.1333    0.5884 C   0  0  0  0  0  0  0  0  0  0  0  0
    1.2683   -4.2239    0.7544 C   0  0  0  0  0  0  0  0  0  0  0  0
    0.2007   -4.1505    1.6453 C   0  0  0  0  0  0  0  0  0  0  0  0
   -0.0019   -2.9790    2.3637 C   0  0  0  0  0  0  0  0  0  0  0  0
   -1.3136   -2.8814    3.4744 Cl  0  0  0  0  0  0  0  0  0  0  0  0
    0.8527   -1.8821    2.2016 C   0  0  0  0  0  0  0  0  0  0  0  0
    1.9493   -1.9413    1.3191 C   0  0  0  0  0  0  0  0  0  0  0  0
    2.5228    1.7555   -1.0349 H   0  0  0  0  0  0  0  0  0  0  0  0
    4.0100    0.8356   -0.8225 H   0  0  0  0  0  0  0  0  0  0  0  0
    3.4012    1.8826    0.4931 H   0  0  0  0  0  0  0  0  0  0  0  0
    1.6426    1.1364    1.8852 H   0  0  0  0  0  0  0  0  0  0  0  0
    3.6443    1.0322    5.0660 H   0  0  0  0  0  0  0  0  0  0  0  0
    1.5847    4.0571    6.8924 H   0  0  0  0  0  0  0  0  0  0  0  0
   -0.1139    5.4676    5.6644 H   0  0  0  0  0  0  0  0  0  0  0  0
   -1.3022    5.9336    3.5355 H   0  0  0  0  0  0  0  0  0  0  0  0
    0.5570    2.8455    1.6022 H   0  0  0  0  0  0  0  0  0  0  0  0
    4.6987   -2.0285    1.3531 H   0  0  0  0  0  0  0  0  0  0  0  0
    4.9786   -0.6085    0.3555 H   0  0  0  0  0  0  0  0  0  0  0  0
    4.8318   -2.5468   -1.1105 H   0  0  0  0  0  0  0  0  0  0  0  0
    3.3618   -1.6240   -1.3964 H   0  0  0  0  0  0  0  0  0  0  0  0
    1.4375   -5.1367    0.1899 H   0  0  0  0  0  0  0  0  0  0  0  0
   -0.4584   -5.0052    1.7736 H   0  0  0  0  0  0  0  0  0  0  0  0
    0.6517   -0.9935    2.7922 H   0  0  0  0  0  0  0  0  0  0  0  0
  1  2  1  0  0  0  0
  1 27  1  0  0  0  0
  1 28  1  0  0  0  0
  1 29  1  0  0  0  0
  2  3  1  0  0  0  0
  3  4  1  0  0  0  0
  3 17  1  0  0  0  0
  3 26  1  0  0  0  0
  4  5  2  0  0  0  0
  4  6  1  0  0  0  0
  6  7  1  0  0  0  0
  6 30  1  0  0  0  0
  7  8  1  0  0  0  0
  7 16  2  0  0  0  0
  8  9  2  0  0  0  0
  8 31  1  0  0  0  0
  9 10  1  0  0  0  0
 10 11  2  0  0  0  0
 10 32  1  0  0  0  0
 11 12  1  0  0  0  0
 11 16  1  0  0  0  0
 12 13  2  0  0  0  0
 12 33  1  0  0  0  0
 13 14  1  0  0  0  0
 13 34  1  0  0  0  0
 14 15  2  0  0  0  0
 15 16  1  0  0  0  0
 15 35  1  0  0  0  0
 17 18  1  0  0  0  0
 17 36  1  0  0  0  0
 17 37  1  0  0  0  0
 18 19  1  0  0  0  0
 18 38  1  0  0  0  0
 18 39  1  0  0  0  0
 19 20  1  0  0  0  0
 20 21  1  0  0  0  0
 20 26  2  0  0  0  0
 21 22  2  0  0  0  0
 21 40  1  0  0  0  0
 22 23  1  0  0  0  0
 22 41  1  0  0  0  0
 23 24  1  0  0  0  0
 23 25  2  0  0  0  0
 25 26  1  0  0  0  0
 25 42  1  0  0  0  0
M  END
$$$$
