
 OpenBabel07202414123D

 55 58  0  0  1  0  0  0  0  0999 V2000
    6.6839   -3.7002    6.5757 C   0  0  0  0  0  0  0  0  0  0  0  0
    5.3784   -3.1206    6.0453 C   0  0  0  0  0  0  0  0  0  0  0  0
    4.5142   -2.5818    7.1838 C   0  0  0  0  0  0  0  0  0  0  0  0
    5.6328   -2.0949    5.0403 N   0  0  0  0  0  0  0  0  0  0  0  0
    4.7025   -1.8518    4.0511 C   0  0  0  0  0  0  0  0  0  0  0  0
    3.6508   -2.4764    3.9576 O   0  0  0  0  0  0  0  0  0  0  0  0
    4.9782   -0.6544    3.1421 C   0  0  0  0  0  0  0  0  0  0  0  0
    6.3746   -0.3541    2.8174 N   0  0  0  0  0  0  0  0  0  0  0  0
    7.0523   -1.1386    1.7884 C   0  0  0  0  0  0  0  0  0  0  0  0
    7.7470   -0.2349    0.7675 C   0  0  3  0  0  0  0  0  0  0  0  0
    6.7364    0.3407   -0.2371 C   0  0  0  0  0  0  0  0  0  0  0  0
    6.7681   -0.0076   -1.4136 O   0  0  0  0  0  0  0  0  0  0  0  0
    5.8226    1.2298    0.3020 N   0  0  0  0  0  0  0  0  0  0  0  0
    4.6667    1.7694   -0.2982 C   0  0  0  0  0  0  0  0  0  0  0  0
    4.1327    1.2857   -1.4980 C   0  0  0  0  0  0  0  0  0  0  0  0
    2.9254    1.6407   -1.9940 N   0  0  0  0  0  0  0  0  0  0  0  0
    2.2463    2.5909   -1.3198 C   0  0  0  0  0  0  0  0  0  0  0  0
    2.7376    3.2672   -0.2082 C   0  0  0  0  0  0  0  0  0  0  0  0
    2.0634    4.3806    0.3220 C   0  0  0  0  0  0  0  0  0  0  0  0
    2.5980    5.0657    1.4014 C   0  0  0  0  0  0  0  0  0  0  0  0
    1.9997    6.1830    1.8395 F   0  0  0  0  0  0  0  0  0  0  0  0
    3.7549    4.6278    2.0166 C   0  0  0  0  0  0  0  0  0  0  0  0
    4.4263    3.5108    1.5086 C   0  0  0  0  0  0  0  0  0  0  0  0
    3.9619    2.8237    0.3549 C   0  0  0  0  0  0  0  0  0  0  0  0
    8.5677    0.8185    1.4926 C   0  0  0  0  0  0  0  0  0  0  0  0
    9.6309    1.4565    0.8340 C   0  0  0  0  0  0  0  0  0  0  0  0
   10.3767    2.4347    1.4934 C   0  0  0  0  0  0  0  0  0  0  0  0
   11.6630    3.2249    0.6702 Cl  0  0  0  0  0  0  0  0  0  0  0  0
   10.0806    2.7860    2.8099 C   0  0  0  0  0  0  0  0  0  0  0  0
    9.0272    2.1580    3.4773 C   0  0  0  0  0  0  0  0  0  0  0  0
    8.2704    1.1767    2.8258 C   0  0  0  0  0  0  0  0  0  0  0  0
    7.0710    0.6132    3.5196 C   0  0  0  0  0  0  0  0  0  0  0  0
    6.6864    1.0686    4.5885 O   0  0  0  0  0  0  0  0  0  0  0  0
    6.4810   -4.5491    7.2384 H   0  0  0  0  0  0  0  0  0  0  0  0
    7.2580   -2.9570    7.1379 H   0  0  0  0  0  0  0  0  0  0  0  0
    7.3118   -4.0590    5.7532 H   0  0  0  0  0  0  0  0  0  0  0  0
    4.8284   -3.9315    5.5566 H   0  0  0  0  0  0  0  0  0  0  0  0
    5.0065   -1.7545    7.7049 H   0  0  0  0  0  0  0  0  0  0  0  0
    4.3046   -3.3701    7.9149 H   0  0  0  0  0  0  0  0  0  0  0  0
    3.5536   -2.2114    6.8090 H   0  0  0  0  0  0  0  0  0  0  0  0
    6.2791   -1.3396    5.2603 H   0  0  0  0  0  0  0  0  0  0  0  0
    4.5261    0.2258    3.6147 H   0  0  0  0  0  0  0  0  0  0  0  0
    4.4561   -0.8233    2.1925 H   0  0  0  0  0  0  0  0  0  0  0  0
    6.3441   -1.8243    1.3084 H   0  0  0  0  0  0  0  0  0  0  0  0
    7.8038   -1.7457    2.3093 H   0  0  0  0  0  0  0  0  0  0  0  0
    8.4359   -0.8662    0.1902 H   0  0  0  0  0  0  0  0  0  0  0  0
    5.9719    1.4827    1.2696 H   0  0  0  0  0  0  0  0  0  0  0  0
    4.6498    0.5557   -2.1120 H   0  0  0  0  0  0  0  0  0  0  0  0
    1.2614    2.8138   -1.7280 H   0  0  0  0  0  0  0  0  0  0  0  0
    1.1504    4.7565   -0.1336 H   0  0  0  0  0  0  0  0  0  0  0  0
    4.1531    5.1698    2.8701 H   0  0  0  0  0  0  0  0  0  0  0  0
    5.3469    3.2272    2.0086 H   0  0  0  0  0  0  0  0  0  0  0  0
    9.8756    1.1969   -0.1953 H   0  0  0  0  0  0  0  0  0  0  0  0
   10.6560    3.5573    3.3166 H   0  0  0  0  0  0  0  0  0  0  0  0
    8.7870    2.4534    4.4975 H   0  0  0  0  0  0  0  0  0  0  0  0
  1  2  1  0  0  0  0
  1 34  1  0  0  0  0
  1 35  1  0  0  0  0
  1 36  1  0  0  0  0
  2  3  1  0  0  0  0
  2  4  1  0  0  0  0
  2 37  1  0  0  0  0
  3 38  1  0  0  0  0
  3 39  1  0  0  0  0
  3 40  1  0  0  0  0
  4  5  1  0  0  0  0
  4 41  1  0  0  0  0
  5  6  2  0  0  0  0
  5  7  1  0  0  0  0
  7  8  1  0  0  0  0
  7 42  1  0  0  0  0
  7 43  1  0  0  0  0
  8  9  1  0  0  0  0
  8 32  1  0  0  0  0
  9 10  1  0  0  0  0
  9 44  1  0  0  0  0
  9 45  1  0  0  0  0
 10 11  1  0  0  0  0
 10 25  1  0  0  0  0
 10 46  1  0  0  0  0
 11 12  2  0  0  0  0
 11 13  1  0  0  0  0
 13 14  1  0  0  0  0
 13 47  1  0  0  0  0
 14 15  1  0  0  0  0
 14 24  2  0  0  0  0
 15 16  2  0  0  0  0
 15 48  1  0  0  0  0
 16 17  1  0  0  0  0
 17 18  2  0  0  0  0
 17 49  1  0  0  0  0
 18 19  1  0  0  0  0
 18 24  1  0  0  0  0
 19 20  2  0  0  0  0
 19 50  1  0  0  0  0
 20 21  1  0  0  0  0
 20 22  1  0  0  0  0
 22 23  2  0  0  0  0
 22 51  1  0  0  0  0
 23 24  1  0  0  0  0
 23 52  1  0  0  0  0
 25 26  1  0  0  0  0
 25 31  2  0  0  0  0
 26 27  2  0  0  0  0
 26 53  1  0  0  0  0
 27 28  1  0  0  0  0
 27 29  1  0  0  0  0
 29 30  2  0  0  0  0
 29 54  1  0  0  0  0
 30 31  1  0  0  0  0
 30 55  1  0  0  0  0
 31 32  1  0  0  0  0
 32 33  2  0  0  0  0
M  END
$$$$
