
 OpenBabel07202414133D

 54 57  0  0  0  0  0  0  0  0999 V2000
    0.9414   -0.2098   -0.1144 C   0  0  0  0  0  0  0  0  0  0  0  0
    2.3831   -0.3760   -0.2988 N   0  0  0  0  0  0  0  0  0  0  0  0
    3.1288   -0.7986    0.8994 C   0  0  0  0  0  0  0  0  0  0  0  0
    3.1820   -2.3071    1.0245 C   0  0  0  0  0  0  0  0  0  0  0  0
    3.2001   -3.1456   -0.1133 C   0  0  0  0  0  0  0  0  0  0  0  0
    3.3249   -4.5298    0.0346 C   0  0  0  0  0  0  0  0  0  0  0  0
    3.3562   -5.3901   -1.1643 N   0  3  0  0  0  0  0  0  0  0  0  0
    3.3118   -4.8288   -2.2688 O   0  5  0  0  0  0  0  0  0  0  0  0
    3.4320   -6.6054   -0.9924 O   0  0  0  0  0  0  0  0  0  0  0  0
    3.4424   -5.1131    1.3072 C   0  0  0  0  0  0  0  0  0  0  0  0
    3.4326   -4.2881    2.4308 C   0  0  0  0  0  0  0  0  0  0  0  0
    3.3133   -2.9051    2.2886 C   0  0  0  0  0  0  0  0  0  0  0  0
    3.0520    0.5585   -1.1031 C   0  0  0  0  0  0  0  0  0  0  0  0
    2.5899    1.8690   -1.3061 C   0  0  0  0  0  0  0  0  0  0  0  0
    3.2817    2.7969   -2.1049 C   0  0  0  0  0  0  0  0  0  0  0  0
    2.7735    4.2020   -2.3443 C   0  0  0  0  0  0  0  0  0  0  0  0
    2.1678    4.9549   -1.1588 C   0  0  0  0  0  0  0  0  0  0  0  0
    1.7205    4.4254   -0.1486 O   0  0  0  0  0  0  0  0  0  0  0  0
    2.1009    6.3214   -1.4101 N   0  0  0  0  0  0  0  0  0  0  0  0
    1.4646    7.2232   -0.5205 C   0  0  0  0  0  0  0  0  0  0  0  0
    0.4353    8.0092   -1.0407 C   0  0  0  0  0  0  0  0  0  0  0  0
   -0.2474    8.9384   -0.3444 N   0  0  0  0  0  0  0  0  0  0  0  0
    0.2138    9.1959    0.8959 C   0  0  0  0  0  0  0  0  0  0  0  0
    1.3351    8.5915    1.4660 C   0  0  0  0  0  0  0  0  0  0  0  0
    1.9107    9.1048    2.6410 C   0  0  0  0  0  0  0  0  0  0  0  0
    3.0189    8.4904    3.2160 C   0  0  0  0  0  0  0  0  0  0  0  0
    3.5027    7.3076    2.6727 C   0  0  0  0  0  0  0  0  0  0  0  0
    2.9672    6.8170    1.4764 C   0  0  0  0  0  0  0  0  0  0  0  0
    1.9198    7.4917    0.7987 C   0  0  0  0  0  0  0  0  0  0  0  0
    4.4312    2.3637   -2.7796 C   0  0  0  0  0  0  0  0  0  0  0  0
    4.8979    1.0640   -2.6046 C   0  0  0  0  0  0  0  0  0  0  0  0
    6.3061    0.5435   -3.4473 Cl  0  0  0  0  0  0  0  0  0  0  0  0
    4.2280    0.1778   -1.7646 C   0  0  0  0  0  0  0  0  0  0  0  0
    0.5240   -1.0673    0.4248 H   0  0  0  0  0  0  0  0  0  0  0  0
    0.4340   -0.1660   -1.0848 H   0  0  0  0  0  0  0  0  0  0  0  0
    0.6998    0.6891    0.4628 H   0  0  0  0  0  0  0  0  0  0  0  0
    2.6463   -0.3771    1.7904 H   0  0  0  0  0  0  0  0  0  0  0  0
    4.1632   -0.4304    0.9029 H   0  0  0  0  0  0  0  0  0  0  0  0
    3.1138   -2.7015   -1.1005 H   0  0  0  0  0  0  0  0  0  0  0  0
    3.5398   -6.1865    1.4279 H   0  0  0  0  0  0  0  0  0  0  0  0
    3.5320   -4.7270    3.4191 H   0  0  0  0  0  0  0  0  0  0  0  0
    3.3247   -2.2789    3.1873 H   0  0  0  0  0  0  0  0  0  0  0  0
    1.6782    2.1890   -0.8100 H   0  0  0  0  0  0  0  0  0  0  0  0
    2.0233    4.1666   -3.1438 H   0  0  0  0  0  0  0  0  0  0  0  0
    3.6114    4.8126   -2.7090 H   0  0  0  0  0  0  0  0  0  0  0  0
    2.0268    6.5568   -2.3932 H   0  0  0  0  0  0  0  0  0  0  0  0
    0.1051    7.8963   -2.0693 H   0  0  0  0  0  0  0  0  0  0  0  0
   -0.3562    9.9453    1.4395 H   0  0  0  0  0  0  0  0  0  0  0  0
    1.5332   10.0272    3.0785 H   0  0  0  0  0  0  0  0  0  0  0  0
    3.4969    8.9311    4.0867 H   0  0  0  0  0  0  0  0  0  0  0  0
    4.3184    6.7793    3.1602 H   0  0  0  0  0  0  0  0  0  0  0  0
    3.3872    5.8997    1.0725 H   0  0  0  0  0  0  0  0  0  0  0  0
    4.9625    3.0331   -3.4521 H   0  0  0  0  0  0  0  0  0  0  0  0
    4.6041   -0.8352   -1.6557 H   0  0  0  0  0  0  0  0  0  0  0  0
  1  2  1  0  0  0  0
  1 34  1  0  0  0  0
  1 35  1  0  0  0  0
  1 36  1  0  0  0  0
  2  3  1  0  0  0  0
  2 13  1  0  0  0  0
  3  4  1  0  0  0  0
  3 37  1  0  0  0  0
  3 38  1  0  0  0  0
  4  5  2  0  0  0  0
  4 12  1  0  0  0  0
  5  6  1  0  0  0  0
  5 39  1  0  0  0  0
  6  7  1  0  0  0  0
  6 10  2  0  0  0  0
  7  8  1  0  0  0  0
  7  9  2  0  0  0  0
 10 11  1  0  0  0  0
 10 40  1  0  0  0  0
 11 12  2  0  0  0  0
 11 41  1  0  0  0  0
 12 42  1  0  0  0  0
 13 14  2  0  0  0  0
 13 33  1  0  0  0  0
 14 15  1  0  0  0  0
 14 43  1  0  0  0  0
 15 16  1  0  0  0  0
 15 30  2  0  0  0  0
 16 17  1  0  0  0  0
 16 44  1  0  0  0  0
 16 45  1  0  0  0  0
 17 18  2  0  0  0  0
 17 19  1  0  0  0  0
 19 20  1  0  0  0  0
 19 46  1  0  0  0  0
 20 21  2  0  0  0  0
 20 29  1  0  0  0  0
 21 22  1  0  0  0  0
 21 47  1  0  0  0  0
 22 23  2  0  0  0  0
 23 24  1  0  0  0  0
 23 48  1  0  0  0  0
 24 25  2  0  0  0  0
 24 29  1  0  0  0  0
 25 26  1  0  0  0  0
 25 49  1  0  0  0  0
 26 27  2  0  0  0  0
 26 50  1  0  0  0  0
 27 28  1  0  0  0  0
 27 51  1  0  0  0  0
 28 29  2  0  0  0  0
 28 52  1  0  0  0  0
 30 31  1  0  0  0  0
 30 53  1  0  0  0  0
 31 32  1  0  0  0  0
 31 33  2  0  0  0  0
 33 54  1  0  0  0  0
M  CHG  2   7   1   8  -1
M  END
$$$$
