
 OpenBabel07202414183D

 39 42  0  0  1  0  0  0  0  0999 V2000
    9.1826    0.2830    0.0081 F   0  0  0  0  0  0  0  0  0  0  0  0
    8.6216   -0.8852   -0.3146 C   0  0  0  0  0  0  0  0  0  0  0  0
    9.3292   -1.7839   -1.1126 C   0  0  0  0  0  0  0  0  0  0  0  0
    8.7278   -2.9870   -1.4650 C   0  0  0  0  0  0  0  0  0  0  0  0
    9.4394   -3.8448   -2.2241 F   0  0  0  0  0  0  0  0  0  0  0  0
    7.4551   -3.3222   -1.0153 C   0  0  0  0  0  0  0  0  0  0  0  0
    6.7464   -2.4101   -0.2046 C   0  0  0  0  0  0  0  0  0  0  0  0
    7.3489   -1.1920    0.1507 C   0  0  0  0  0  0  0  0  0  0  0  0
    5.3214   -2.7195    0.2345 C   0  0  3  0  0  0  0  0  0  0  0  0
    5.1905   -3.0992    1.7039 C   0  0  0  0  0  0  0  0  0  0  0  0
    4.4742   -2.4146    2.4484 O   0  0  0  0  0  0  0  0  0  0  0  0
    5.9219   -4.1864    2.1295 N   0  0  0  0  0  0  0  0  0  0  0  0
    5.9346   -4.7640    3.4232 C   0  0  0  0  0  0  0  0  0  0  0  0
    7.2008   -5.1353    3.8908 C   0  0  0  0  0  0  0  0  0  0  0  0
    7.4406   -5.8755    4.9889 N   0  0  0  0  0  0  0  0  0  0  0  0
    6.3485   -6.3583    5.6063 C   0  0  0  0  0  0  0  0  0  0  0  0
    5.0355   -6.0575    5.2450 C   0  0  0  0  0  0  0  0  0  0  0  0
    3.9728   -6.6710    5.9184 C   0  0  0  0  0  0  0  0  0  0  0  0
    2.7270   -6.0698    5.9427 C   0  0  0  0  0  0  0  0  0  0  0  0
    2.4622   -5.0655    5.0286 C   0  0  0  0  0  0  0  0  0  0  0  0
    3.4412   -4.7016    4.0886 C   0  0  0  0  0  0  0  0  0  0  0  0
    4.7975   -5.1212    4.2156 C   0  0  0  0  0  0  0  0  0  0  0  0
    4.6616   -3.7494   -0.6720 C   0  0  0  0  0  0  0  0  0  0  0  0
    5.5499   -4.8413   -1.0047 N   0  0  0  0  0  0  0  0  0  0  0  0
    6.8622   -4.6406   -1.3850 C   0  0  0  0  0  0  0  0  0  0  0  0
    7.4897   -5.5431   -1.9122 O   0  0  0  0  0  0  0  0  0  0  0  0
   10.3215   -1.5429   -1.4697 H   0  0  0  0  0  0  0  0  0  0  0  0
    6.8257   -0.4618    0.7686 H   0  0  0  0  0  0  0  0  0  0  0  0
    4.7398   -1.7911    0.1198 H   0  0  0  0  0  0  0  0  0  0  0  0
    6.7267   -4.4152    1.5511 H   0  0  0  0  0  0  0  0  0  0  0  0
    8.1022   -4.8042    3.3823 H   0  0  0  0  0  0  0  0  0  0  0  0
    6.5610   -6.9669    6.4831 H   0  0  0  0  0  0  0  0  0  0  0  0
    4.1107   -7.6364    6.4002 H   0  0  0  0  0  0  0  0  0  0  0  0
    1.9714   -6.4064    6.6474 H   0  0  0  0  0  0  0  0  0  0  0  0
    1.4783   -4.6038    5.0089 H   0  0  0  0  0  0  0  0  0  0  0  0
    3.1336   -4.0250    3.3007 H   0  0  0  0  0  0  0  0  0  0  0  0
    4.3875   -3.2847   -1.6285 H   0  0  0  0  0  0  0  0  0  0  0  0
    3.7517   -4.1694   -0.2317 H   0  0  0  0  0  0  0  0  0  0  0  0
    5.1477   -5.7170   -1.3330 H   0  0  0  0  0  0  0  0  0  0  0  0
  1  2  1  0  0  0  0
  2  3  1  0  0  0  0
  2  8  2  0  0  0  0
  3  4  2  0  0  0  0
  3 27  1  0  0  0  0
  4  5  1  0  0  0  0
  4  6  1  0  0  0  0
  6  7  2  0  0  0  0
  6 25  1  0  0  0  0
  7  8  1  0  0  0  0
  7  9  1  0  0  0  0
  8 28  1  0  0  0  0
  9 10  1  0  0  0  0
  9 23  1  0  0  0  0
  9 29  1  0  0  0  0
 10 11  2  0  0  0  0
 10 12  1  0  0  0  0
 12 13  1  0  0  0  0
 12 30  1  0  0  0  0
 13 14  1  0  0  0  0
 13 22  2  0  0  0  0
 14 15  2  0  0  0  0
 14 31  1  0  0  0  0
 15 16  1  0  0  0  0
 16 17  2  0  0  0  0
 16 32  1  0  0  0  0
 17 18  1  0  0  0  0
 17 22  1  0  0  0  0
 18 19  2  0  0  0  0
 18 33  1  0  0  0  0
 19 20  1  0  0  0  0
 19 34  1  0  0  0  0
 20 21  2  0  0  0  0
 20 35  1  0  0  0  0
 21 22  1  0  0  0  0
 21 36  1  0  0  0  0
 23 24  1  0  0  0  0
 23 37  1  0  0  0  0
 23 38  1  0  0  0  0
 24 25  1  0  0  0  0
 24 39  1  0  0  0  0
 25 26  2  0  0  0  0
M  END
$$$$
