
 OpenBabel07202414183D

 49 52  0  0  1  0  0  0  0  0999 V2000
    3.2982    2.6385    0.6257 F   0  0  0  0  0  0  0  0  0  0  0  0
    2.3672    1.7998    1.1272 C   0  0  0  0  0  0  0  0  0  0  0  0
    1.5022    2.5436    1.8511 F   0  0  0  0  0  0  0  0  0  0  0  0
    1.6848    1.2852    0.0813 F   0  0  0  0  0  0  0  0  0  0  0  0
    2.9716    0.6977    1.9712 C   0  0  0  0  0  0  0  0  0  0  0  0
    4.4829    0.8387    2.0317 C   0  0  0  0  0  0  0  0  0  0  0  0
    5.0465   -0.2031    2.8371 O   0  0  0  0  0  0  0  0  0  0  0  0
    6.4169   -0.1750    2.9950 C   0  0  0  0  0  0  0  0  0  0  0  0
    7.2491    0.7757    2.3930 C   0  0  0  0  0  0  0  0  0  0  0  0
    8.6310    0.7274    2.5824 C   0  0  0  0  0  0  0  0  0  0  0  0
    9.6307    1.9055    1.8330 Cl  0  0  0  0  0  0  0  0  0  0  0  0
    9.2002   -0.2720    3.3620 C   0  0  0  0  0  0  0  0  0  0  0  0
    8.3887   -1.2352    3.9757 C   0  0  0  0  0  0  0  0  0  0  0  0
    6.9943   -1.1845    3.7942 C   0  0  0  0  0  0  0  0  0  0  0  0
    6.1430   -2.0918    4.3686 O   0  0  0  0  0  0  0  0  0  0  0  0
    6.7096   -3.2210    5.0395 C   0  0  0  0  0  0  0  0  0  0  0  0
    8.0165   -2.9219    5.7510 C   0  0  0  0  0  0  0  0  0  0  0  0
    9.0309   -2.3537    4.7703 C   0  0  3  0  0  0  0  0  0  0  0  0
    9.6484   -3.4582    3.8908 C   0  0  0  0  0  0  0  0  0  0  0  0
   10.6496   -4.0716    4.2661 O   0  0  0  0  0  0  0  0  0  0  0  0
    8.9435   -3.7250    2.7297 N   0  0  0  0  0  0  0  0  0  0  0  0
    9.3062   -4.5579    1.6436 C   0  0  0  0  0  0  0  0  0  0  0  0
   10.5068   -5.2596    1.5879 C   0  0  0  0  0  0  0  0  0  0  0  0
   10.9535   -5.9161    0.4913 N   0  0  0  0  0  0  0  0  0  0  0  0
   10.1448   -5.9098   -0.5882 C   0  0  0  0  0  0  0  0  0  0  0  0
    8.8742   -5.3362   -0.6243 C   0  0  0  0  0  0  0  0  0  0  0  0
    8.0461   -5.4600   -1.7558 C   0  0  0  0  0  0  0  0  0  0  0  0
    6.7663   -4.9111   -1.7679 C   0  0  0  0  0  0  0  0  0  0  0  0
    6.3075   -4.2115   -0.6624 C   0  0  0  0  0  0  0  0  0  0  0  0
    7.1257   -4.0712    0.4604 C   0  0  0  0  0  0  0  0  0  0  0  0
    8.4284   -4.6352    0.5203 C   0  0  0  0  0  0  0  0  0  0  0  0
    2.7050   -0.2839    1.5632 H   0  0  0  0  0  0  0  0  0  0  0  0
    2.5547    0.7217    2.9849 H   0  0  0  0  0  0  0  0  0  0  0  0
    4.7289    1.8121    2.4712 H   0  0  0  0  0  0  0  0  0  0  0  0
    4.8840    0.7650    1.0130 H   0  0  0  0  0  0  0  0  0  0  0  0
    6.8558    1.5703    1.7662 H   0  0  0  0  0  0  0  0  0  0  0  0
   10.2832   -0.3030    3.4868 H   0  0  0  0  0  0  0  0  0  0  0  0
    6.8188   -4.0365    4.3181 H   0  0  0  0  0  0  0  0  0  0  0  0
    5.9722   -3.5604    5.7755 H   0  0  0  0  0  0  0  0  0  0  0  0
    8.4008   -3.8235    6.2395 H   0  0  0  0  0  0  0  0  0  0  0  0
    7.8279   -2.1768    6.5351 H   0  0  0  0  0  0  0  0  0  0  0  0
    9.8620   -1.9216    5.3487 H   0  0  0  0  0  0  0  0  0  0  0  0
    8.1266   -3.1568    2.5719 H   0  0  0  0  0  0  0  0  0  0  0  0
   11.1909   -5.3133    2.4275 H   0  0  0  0  0  0  0  0  0  0  0  0
   10.5622   -6.4074   -1.4616 H   0  0  0  0  0  0  0  0  0  0  0  0
    8.3901   -6.0095   -2.6317 H   0  0  0  0  0  0  0  0  0  0  0  0
    6.1238   -5.0393   -2.6386 H   0  0  0  0  0  0  0  0  0  0  0  0
    5.3077   -3.7846   -0.6620 H   0  0  0  0  0  0  0  0  0  0  0  0
    6.6968   -3.5368    1.3028 H   0  0  0  0  0  0  0  0  0  0  0  0
  1  2  1  0  0  0  0
  2  3  1  0  0  0  0
  2  4  1  0  0  0  0
  2  5  1  0  0  0  0
  5  6  1  0  0  0  0
  5 32  1  0  0  0  0
  5 33  1  0  0  0  0
  6  7  1  0  0  0  0
  6 34  1  0  0  0  0
  6 35  1  0  0  0  0
  7  8  1  0  0  0  0
  8  9  1  0  0  0  0
  8 14  2  0  0  0  0
  9 10  2  0  0  0  0
  9 36  1  0  0  0  0
 10 11  1  0  0  0  0
 10 12  1  0  0  0  0
 12 13  2  0  0  0  0
 12 37  1  0  0  0  0
 13 14  1  0  0  0  0
 13 18  1  0  0  0  0
 14 15  1  0  0  0  0
 15 16  1  0  0  0  0
 16 17  1  0  0  0  0
 16 38  1  0  0  0  0
 16 39  1  0  0  0  0
 17 18  1  0  0  0  0
 17 40  1  0  0  0  0
 17 41  1  0  0  0  0
 18 19  1  0  0  0  0
 18 42  1  0  0  0  0
 19 20  2  0  0  0  0
 19 21  1  0  0  0  0
 21 22  1  0  0  0  0
 21 43  1  0  0  0  0
 22 23  1  0  0  0  0
 22 31  2  0  0  0  0
 23 24  2  0  0  0  0
 23 44  1  0  0  0  0
 24 25  1  0  0  0  0
 25 26  2  0  0  0  0
 25 45  1  0  0  0  0
 26 27  1  0  0  0  0
 26 31  1  0  0  0  0
 27 28  2  0  0  0  0
 27 46  1  0  0  0  0
 28 29  1  0  0  0  0
 28 47  1  0  0  0  0
 29 30  2  0  0  0  0
 29 48  1  0  0  0  0
 30 31  1  0  0  0  0
 30 49  1  0  0  0  0
M  END
$$$$
