
 OpenBabel07202414173D

 52 56  0  0  1  0  0  0  0  0999 V2000
    1.1324   -1.0228   -4.3614 Cl  0  0  0  0  0  0  0  0  0  0  0  0
    2.7170   -0.4950   -3.9475 C   0  0  0  0  0  0  0  0  0  0  0  0
    3.7561   -1.4173   -3.8417 C   0  0  0  0  0  0  0  0  0  0  0  0
    5.0538   -0.9830   -3.5405 C   0  0  0  0  0  0  0  0  0  0  0  0
    5.3283    0.3822   -3.3524 C   0  0  0  0  0  0  0  0  0  0  0  0
    4.2566    1.2881   -3.4429 C   0  0  0  0  0  0  0  0  0  0  0  0
    2.9626    0.8553   -3.7429 C   0  0  0  0  0  0  0  0  0  0  0  0
    4.3867    2.6453   -3.3339 O   0  0  0  0  0  0  0  0  0  0  0  0
    5.6280    3.0745   -2.7922 C   0  0  0  0  0  0  0  0  0  0  0  0
    6.7974    2.3904   -3.4719 C   0  0  0  0  0  0  0  0  0  0  0  0
    6.7673    0.8764   -3.2317 C   0  0  3  0  0  0  0  0  0  0  0  0
    7.5383    0.5032   -1.9379 C   0  0  0  0  0  0  0  0  0  0  0  0
    6.9600    0.0392   -0.9471 O   0  0  0  0  0  0  0  0  0  0  0  0
    8.9251    0.7719   -1.8987 N   0  0  0  0  0  0  0  0  0  0  0  0
    9.6737    0.6588   -0.6198 C   0  0  0  0  0  0  0  0  0  0  0  0
   10.4014   -0.6495   -0.3684 C   0  0  0  0  0  0  0  0  0  0  0  0
   10.3958   -1.7957   -1.0657 C   0  0  0  0  0  0  0  0  0  0  0  0
   11.0979   -2.9026   -0.6666 N   0  0  0  0  0  0  0  0  0  0  0  0
   11.8151   -2.9748    0.4930 C   0  0  0  0  0  0  0  0  0  0  0  0
   12.3912   -3.9972    0.8435 O   0  0  0  0  0  0  0  0  0  0  0  0
   11.8385   -1.8247    1.2278 N   0  0  0  0  0  0  0  0  0  0  0  0
   11.2567   -0.6432    0.8625 C   0  0  0  0  0  0  0  0  0  0  0  0
   11.4326    0.3838    1.5121 O   0  0  0  0  0  0  0  0  0  0  0  0
    9.7213    0.9716   -3.0701 C   0  0  0  0  0  0  0  0  0  0  0  0
    9.8622   -0.0931   -3.9615 C   0  0  0  0  0  0  0  0  0  0  0  0
   10.7381   -0.1290   -4.9799 N   0  0  0  0  0  0  0  0  0  0  0  0
   11.4664    0.9882   -5.1727 C   0  0  0  0  0  0  0  0  0  0  0  0
   11.3143    2.1714   -4.4494 C   0  0  0  0  0  0  0  0  0  0  0  0
   11.9924    3.3373   -4.8390 C   0  0  0  0  0  0  0  0  0  0  0  0
   11.7750    4.5425   -4.1768 C   0  0  0  0  0  0  0  0  0  0  0  0
   10.9165    4.5790   -3.0858 C   0  0  0  0  0  0  0  0  0  0  0  0
   10.2728    3.4092   -2.6578 C   0  0  0  0  0  0  0  0  0  0  0  0
   10.4319    2.1754   -3.3450 C   0  0  0  0  0  0  0  0  0  0  0  0
    3.5640   -2.4723   -4.0190 H   0  0  0  0  0  0  0  0  0  0  0  0
    5.8524   -1.7196   -3.4952 H   0  0  0  0  0  0  0  0  0  0  0  0
    2.1609    1.5838   -3.8407 H   0  0  0  0  0  0  0  0  0  0  0  0
    5.6294    2.9258   -1.7060 H   0  0  0  0  0  0  0  0  0  0  0  0
    5.6957    4.1535   -2.9714 H   0  0  0  0  0  0  0  0  0  0  0  0
    7.7114    2.8542   -3.1122 H   0  0  0  0  0  0  0  0  0  0  0  0
    6.7412    2.5715   -4.5531 H   0  0  0  0  0  0  0  0  0  0  0  0
    7.2938    0.3987   -4.0644 H   0  0  0  0  0  0  0  0  0  0  0  0
    8.9716    0.8226    0.2070 H   0  0  0  0  0  0  0  0  0  0  0  0
   10.3966    1.4826   -0.5835 H   0  0  0  0  0  0  0  0  0  0  0  0
    9.8278   -1.9355   -1.9725 H   0  0  0  0  0  0  0  0  0  0  0  0
   11.0770   -3.7557   -1.2167 H   0  0  0  0  0  0  0  0  0  0  0  0
   12.3956   -1.8363    2.0682 H   0  0  0  0  0  0  0  0  0  0  0  0
    9.2740   -0.9998   -3.8544 H   0  0  0  0  0  0  0  0  0  0  0  0
   12.1936    0.9123   -5.9768 H   0  0  0  0  0  0  0  0  0  0  0  0
   12.6614    3.3236   -5.6981 H   0  0  0  0  0  0  0  0  0  0  0  0
   12.2632    5.4505   -4.5242 H   0  0  0  0  0  0  0  0  0  0  0  0
   10.7303    5.5250   -2.5796 H   0  0  0  0  0  0  0  0  0  0  0  0
    9.5882    3.4913   -1.8164 H   0  0  0  0  0  0  0  0  0  0  0  0
  1  2  1  0  0  0  0
  2  3  1  0  0  0  0
  2  7  2  0  0  0  0
  3  4  2  0  0  0  0
  3 34  1  0  0  0  0
  4  5  1  0  0  0  0
  4 35  1  0  0  0  0
  5  6  2  0  0  0  0
  5 11  1  0  0  0  0
  6  7  1  0  0  0  0
  6  8  1  0  0  0  0
  7 36  1  0  0  0  0
  8  9  1  0  0  0  0
  9 10  1  0  0  0  0
  9 37  1  0  0  0  0
  9 38  1  0  0  0  0
 10 11  1  0  0  0  0
 10 39  1  0  0  0  0
 10 40  1  0  0  0  0
 11 12  1  0  0  0  0
 11 41  1  0  0  0  0
 12 13  2  0  0  0  0
 12 14  1  0  0  0  0
 14 15  1  0  0  0  0
 14 24  1  0  0  0  0
 15 16  1  0  0  0  0
 15 42  1  0  0  0  0
 15 43  1  0  0  0  0
 16 17  2  0  0  0  0
 16 22  1  0  0  0  0
 17 18  1  0  0  0  0
 17 44  1  0  0  0  0
 18 19  1  0  0  0  0
 18 45  1  0  0  0  0
 19 20  2  0  0  0  0
 19 21  1  0  0  0  0
 21 22  1  0  0  0  0
 21 46  1  0  0  0  0
 22 23  2  0  0  0  0
 24 25  1  0  0  0  0
 24 33  2  0  0  0  0
 25 26  2  0  0  0  0
 25 47  1  0  0  0  0
 26 27  1  0  0  0  0
 27 28  2  0  0  0  0
 27 48  1  0  0  0  0
 28 29  1  0  0  0  0
 28 33  1  0  0  0  0
 29 30  2  0  0  0  0
 29 49  1  0  0  0  0
 30 31  1  0  0  0  0
 30 50  1  0  0  0  0
 31 32  2  0  0  0  0
 31 51  1  0  0  0  0
 32 33  1  0  0  0  0
 32 52  1  0  0  0  0
M  END
$$$$
