
 OpenBabel07202414153D

 41 44  0  0  0  0  0  0  0  0999 V2000
    1.1777    0.5523    0.4878 C   0  0  0  0  0  0  0  0  0  0  0  0
    2.3456   -0.0361   -0.0715 O   0  0  0  0  0  0  0  0  0  0  0  0
    3.0543    0.7209   -0.9630 C   0  0  0  0  0  0  0  0  0  0  0  0
    4.1875    0.1016   -1.4882 C   0  0  0  0  0  0  0  0  0  0  0  0
    5.0131    0.7651   -2.4064 C   0  0  0  0  0  0  0  0  0  0  0  0
    4.7351    2.0762   -2.8124 C   0  0  0  0  0  0  0  0  0  0  0  0
    5.5880    2.8574   -3.7532 C   0  0  0  0  0  0  0  0  0  0  0  0
    6.8970    2.3450   -4.2934 C   0  0  0  0  0  0  0  0  0  0  0  0
    7.5452    1.4714   -3.7131 O   0  0  0  0  0  0  0  0  0  0  0  0
    7.3568    2.8764   -5.4825 N   0  0  0  0  0  0  0  0  0  0  0  0
    8.5973    2.3958   -5.9378 N   0  0  0  0  0  0  0  0  0  0  0  0
    8.9141    2.4088   -7.2481 C   0  0  0  0  0  0  0  0  0  0  0  0
    8.2886    2.9837   -8.2501 N   0  0  0  0  0  0  0  0  0  0  0  0
    9.0128    2.6461   -9.3727 C   0  0  0  0  0  0  0  0  0  0  0  0
    8.7827    2.9555  -10.7218 C   0  0  0  0  0  0  0  0  0  0  0  0
    9.6758    2.4723  -11.6881 C   0  0  0  0  0  0  0  0  0  0  0  0
   10.7836    1.7041  -11.3192 C   0  0  0  0  0  0  0  0  0  0  0  0
   11.0352    1.3898   -9.9788 C   0  0  0  0  0  0  0  0  0  0  0  0
   10.1220    1.8768   -9.0395 C   0  0  0  0  0  0  0  0  0  0  0  0
   10.0416    1.7557   -7.6770 N   0  0  0  0  0  0  0  0  0  0  0  0
    5.2377    4.1265   -4.0315 C   0  0  0  0  0  0  0  0  0  0  0  0
    4.0158    4.7500   -3.4817 C   0  0  0  0  0  0  0  0  0  0  0  0
    3.7156    5.9027   -3.7674 O   0  0  0  0  0  0  0  0  0  0  0  0
    3.2554    3.9890   -2.6427 N   0  0  0  0  0  0  0  0  0  0  0  0
    3.5830    2.6794   -2.2769 C   0  0  0  0  0  0  0  0  0  0  0  0
    2.7456    2.0135   -1.3713 C   0  0  0  0  0  0  0  0  0  0  0  0
    0.7419   -0.1661    1.1886 H   0  0  0  0  0  0  0  0  0  0  0  0
    0.4328    0.7566   -0.2884 H   0  0  0  0  0  0  0  0  0  0  0  0
    1.4210    1.4597    1.0508 H   0  0  0  0  0  0  0  0  0  0  0  0
    4.4418   -0.9102   -1.1769 H   0  0  0  0  0  0  0  0  0  0  0  0
    5.8798    0.2229   -2.7742 H   0  0  0  0  0  0  0  0  0  0  0  0
    6.8608    3.4988   -6.1148 H   0  0  0  0  0  0  0  0  0  0  0  0
    8.9512    1.6509   -5.3279 H   0  0  0  0  0  0  0  0  0  0  0  0
    7.9221    3.5538  -11.0032 H   0  0  0  0  0  0  0  0  0  0  0  0
    9.5024    2.6990  -12.7378 H   0  0  0  0  0  0  0  0  0  0  0  0
   11.4616    1.3406  -12.0894 H   0  0  0  0  0  0  0  0  0  0  0  0
   11.8942    0.7925   -9.6929 H   0  0  0  0  0  0  0  0  0  0  0  0
   10.6940    1.2684   -7.0841 H   0  0  0  0  0  0  0  0  0  0  0  0
    5.8274    4.7994   -4.6424 H   0  0  0  0  0  0  0  0  0  0  0  0
    2.4323    4.4378   -2.2688 H   0  0  0  0  0  0  0  0  0  0  0  0
    1.8690    2.5286   -0.9890 H   0  0  0  0  0  0  0  0  0  0  0  0
  1  2  1  0  0  0  0
  1 27  1  0  0  0  0
  1 28  1  0  0  0  0
  1 29  1  0  0  0  0
  2  3  1  0  0  0  0
  3  4  1  0  0  0  0
  3 26  2  0  0  0  0
  4  5  2  0  0  0  0
  4 30  1  0  0  0  0
  5  6  1  0  0  0  0
  5 31  1  0  0  0  0
  6  7  1  0  0  0  0
  6 25  2  0  0  0  0
  7  8  1  0  0  0  0
  7 21  2  0  0  0  0
  8  9  2  0  0  0  0
  8 10  1  0  0  0  0
 10 11  1  0  0  0  0
 10 32  1  0  0  0  0
 11 12  1  0  0  0  0
 11 33  1  0  0  0  0
 12 13  2  0  0  0  0
 12 20  1  0  0  0  0
 13 14  1  0  0  0  0
 14 15  1  0  0  0  0
 14 19  2  0  0  0  0
 15 16  2  0  0  0  0
 15 34  1  0  0  0  0
 16 17  1  0  0  0  0
 16 35  1  0  0  0  0
 17 18  2  0  0  0  0
 17 36  1  0  0  0  0
 18 19  1  0  0  0  0
 18 37  1  0  0  0  0
 19 20  1  0  0  0  0
 20 38  1  0  0  0  0
 21 22  1  0  0  0  0
 21 39  1  0  0  0  0
 22 23  2  0  0  0  0
 22 24  1  0  0  0  0
 24 25  1  0  0  0  0
 24 40  1  0  0  0  0
 25 26  1  0  0  0  0
 26 41  1  0  0  0  0
M  END
$$$$
