
 OpenBabel07202414133D

 40 42  0  0  0  0  0  0  0  0999 V2000
    1.0858   -0.0962    0.1941 C   0  0  0  0  0  0  0  0  0  0  0  0
    2.5376   -0.0634    0.0910 N   0  0  0  0  0  0  0  0  0  0  0  0
    3.1763   -0.9417   -0.8909 C   0  0  0  0  0  0  0  0  0  0  0  0
    3.4495   -0.2979   -2.2355 C   0  0  0  0  0  0  0  0  0  0  0  0
    2.5913    0.6569   -2.8024 C   0  0  0  0  0  0  0  0  0  0  0  0
    2.8280    1.1717   -4.0800 C   0  0  0  0  0  0  0  0  0  0  0  0
    3.9268    0.7363   -4.8158 C   0  0  0  0  0  0  0  0  0  0  0  0
    4.7889   -0.2081   -4.2665 C   0  0  0  0  0  0  0  0  0  0  0  0
    6.1495   -0.7478   -5.1714 Cl  0  0  0  0  0  0  0  0  0  0  0  0
    4.5545   -0.7278   -2.9909 C   0  0  0  0  0  0  0  0  0  0  0  0
    3.2030    0.8807    0.8631 C   0  0  0  0  0  0  0  0  0  0  0  0
    2.5868    1.6799    1.5749 O   0  0  0  0  0  0  0  0  0  0  0  0
    4.7284    0.8722    0.8885 C   0  0  0  0  0  0  0  0  0  0  0  0
    5.3031   -0.1364    1.8633 C   0  0  0  0  0  0  0  0  0  0  0  0
    4.6303   -0.3880    3.0641 C   0  0  0  0  0  0  0  0  0  0  0  0
    5.0117   -1.2968    3.9844 N   0  0  0  0  0  0  0  0  0  0  0  0
    6.1395   -1.9826    3.7162 C   0  0  0  0  0  0  0  0  0  0  0  0
    6.9313   -1.7945    2.5857 C   0  0  0  0  0  0  0  0  0  0  0  0
    8.1067   -2.5401    2.3952 C   0  0  0  0  0  0  0  0  0  0  0  0
    8.9106   -2.3233    1.2804 C   0  0  0  0  0  0  0  0  0  0  0  0
    8.5506   -1.3563    0.3509 C   0  0  0  0  0  0  0  0  0  0  0  0
    7.3743   -0.6191    0.5237 C   0  0  0  0  0  0  0  0  0  0  0  0
    6.5240   -0.8270    1.6350 C   0  0  0  0  0  0  0  0  0  0  0  0
    0.6722   -0.9706   -0.3149 H   0  0  0  0  0  0  0  0  0  0  0  0
    0.6721    0.8174   -0.2421 H   0  0  0  0  0  0  0  0  0  0  0  0
    0.7987   -0.1337    1.2501 H   0  0  0  0  0  0  0  0  0  0  0  0
    2.5486   -1.8276   -1.0429 H   0  0  0  0  0  0  0  0  0  0  0  0
    4.1169   -1.3031   -0.4635 H   0  0  0  0  0  0  0  0  0  0  0  0
    1.7198    1.0148   -2.2618 H   0  0  0  0  0  0  0  0  0  0  0  0
    2.1472    1.9077   -4.5014 H   0  0  0  0  0  0  0  0  0  0  0  0
    4.1000    1.1318   -5.8130 H   0  0  0  0  0  0  0  0  0  0  0  0
    5.2338   -1.4775   -2.5898 H   0  0  0  0  0  0  0  0  0  0  0  0
    5.0684    1.8750    1.1758 H   0  0  0  0  0  0  0  0  0  0  0  0
    5.0878    0.7152   -0.1308 H   0  0  0  0  0  0  0  0  0  0  0  0
    3.7238    0.1488    3.3367 H   0  0  0  0  0  0  0  0  0  0  0  0
    6.4063   -2.7122    4.4768 H   0  0  0  0  0  0  0  0  0  0  0  0
    8.4064   -3.2916    3.1231 H   0  0  0  0  0  0  0  0  0  0  0  0
    9.8222   -2.9005    1.1457 H   0  0  0  0  0  0  0  0  0  0  0  0
    9.1882   -1.1679   -0.5099 H   0  0  0  0  0  0  0  0  0  0  0  0
    7.1486    0.1394   -0.2210 H   0  0  0  0  0  0  0  0  0  0  0  0
  1  2  1  0  0  0  0
  1 24  1  0  0  0  0
  1 25  1  0  0  0  0
  1 26  1  0  0  0  0
  2  3  1  0  0  0  0
  2 11  1  0  0  0  0
  3  4  1  0  0  0  0
  3 27  1  0  0  0  0
  3 28  1  0  0  0  0
  4  5  1  0  0  0  0
  4 10  2  0  0  0  0
  5  6  2  0  0  0  0
  5 29  1  0  0  0  0
  6  7  1  0  0  0  0
  6 30  1  0  0  0  0
  7  8  2  0  0  0  0
  7 31  1  0  0  0  0
  8  9  1  0  0  0  0
  8 10  1  0  0  0  0
 10 32  1  0  0  0  0
 11 12  2  0  0  0  0
 11 13  1  0  0  0  0
 13 14  1  0  0  0  0
 13 33  1  0  0  0  0
 13 34  1  0  0  0  0
 14 15  1  0  0  0  0
 14 23  2  0  0  0  0
 15 16  2  0  0  0  0
 15 35  1  0  0  0  0
 16 17  1  0  0  0  0
 17 18  2  0  0  0  0
 17 36  1  0  0  0  0
 18 19  1  0  0  0  0
 18 23  1  0  0  0  0
 19 20  2  0  0  0  0
 19 37  1  0  0  0  0
 20 21  1  0  0  0  0
 20 38  1  0  0  0  0
 21 22  2  0  0  0  0
 21 39  1  0  0  0  0
 22 23  1  0  0  0  0
 22 40  1  0  0  0  0
M  END
$$$$
