
 OpenBabel07202414153D

 44 46  0  0  0  0  0  0  0  0999 V2000
    1.1870   -0.1371    0.4816 C   0  0  0  0  0  0  0  0  0  0  0  0
    2.5336   -0.2969    0.0556 O   0  0  0  0  0  0  0  0  0  0  0  0
    3.3772    0.7725    0.2089 C   0  0  0  0  0  0  0  0  0  0  0  0
    3.2021    1.6849    1.2637 C   0  0  0  0  0  0  0  0  0  0  0  0
    4.1002    2.7300    1.4670 C   0  0  0  0  0  0  0  0  0  0  0  0
    5.1849    2.8677    0.6190 C   0  0  0  0  0  0  0  0  0  0  0  0
    5.3817    1.9640   -0.4271 C   0  0  0  0  0  0  0  0  0  0  0  0
    4.4683    0.9130   -0.6840 C   0  0  0  0  0  0  0  0  0  0  0  0
    4.8019    0.0497   -1.7686 N   0  0  0  0  0  0  0  0  0  0  0  0
    3.7978   -0.9254   -2.2264 C   0  0  0  0  0  0  0  0  0  0  0  0
    4.2323   -1.6707   -3.5145 C   0  0  0  0  0  0  0  0  0  0  0  0
    3.3389   -2.7581   -3.9386 N   0  0  0  0  0  0  0  0  0  0  0  0
    1.9768   -2.5987   -4.0066 C   0  0  0  0  0  0  0  0  0  0  0  0
    1.4449   -1.5025   -3.8546 O   0  0  0  0  0  0  0  0  0  0  0  0
    1.1440   -3.8519   -4.1306 C   0  0  0  0  0  0  0  0  0  0  0  0
   -0.0399   -3.6490   -3.5148 C   0  0  0  0  0  0  0  0  0  0  0  0
   -0.1696   -4.3449   -2.2003 C   0  0  0  0  0  0  0  0  0  0  0  0
   -0.9682   -3.9287   -1.3540 O   0  0  0  0  0  0  0  0  0  0  0  0
    0.6492   -5.4126   -1.9549 N   0  0  0  0  0  0  0  0  0  0  0  0
    1.4155   -5.9886   -2.9695 C   0  0  0  0  0  0  0  0  0  0  0  0
    1.6294   -5.2426   -4.1332 C   0  0  0  0  0  0  0  0  0  0  0  0
    2.1086   -5.8995   -5.2714 C   0  0  0  0  0  0  0  0  0  0  0  0
    2.3994   -7.2709   -5.2103 C   0  0  0  0  0  0  0  0  0  0  0  0
    2.2758   -7.9710   -4.0049 C   0  0  0  0  0  0  0  0  0  0  0  0
    1.8046   -7.3223   -2.8670 C   0  0  0  0  0  0  0  0  0  0  0  0
    0.6096   -0.9793    0.0876 H   0  0  0  0  0  0  0  0  0  0  0  0
    0.7439    0.7838    0.0874 H   0  0  0  0  0  0  0  0  0  0  0  0
    1.1139   -0.1742    1.5733 H   0  0  0  0  0  0  0  0  0  0  0  0
    2.3791    1.5845    1.9656 H   0  0  0  0  0  0  0  0  0  0  0  0
    3.9486    3.4248    2.2832 H   0  0  0  0  0  0  0  0  0  0  0  0
    5.9074    3.6740    0.7800 H   0  0  0  0  0  0  0  0  0  0  0  0
    6.2506    2.0885   -1.0633 H   0  0  0  0  0  0  0  0  0  0  0  0
    5.1490    0.6219   -2.5334 H   0  0  0  0  0  0  0  0  0  0  0  0
    2.8652   -0.3886   -2.4147 H   0  0  0  0  0  0  0  0  0  0  0  0
    3.6414   -1.6819   -1.4559 H   0  0  0  0  0  0  0  0  0  0  0  0
    5.2172   -2.1271   -3.3506 H   0  0  0  0  0  0  0  0  0  0  0  0
    4.3299   -0.9689   -4.3492 H   0  0  0  0  0  0  0  0  0  0  0  0
    3.7531   -3.6294   -4.2411 H   0  0  0  0  0  0  0  0  0  0  0  0
   -0.5374   -2.6848   -3.4854 H   0  0  0  0  0  0  0  0  0  0  0  0
    0.5208   -5.8744   -1.0668 H   0  0  0  0  0  0  0  0  0  0  0  0
    2.1749   -5.3875   -6.2280 H   0  0  0  0  0  0  0  0  0  0  0  0
    2.6914   -7.8089   -6.1105 H   0  0  0  0  0  0  0  0  0  0  0  0
    2.4909   -9.0367   -3.9672 H   0  0  0  0  0  0  0  0  0  0  0  0
    1.6481   -7.8828   -1.9499 H   0  0  0  0  0  0  0  0  0  0  0  0
  1  2  1  0  0  0  0
  1 26  1  0  0  0  0
  1 27  1  0  0  0  0
  1 28  1  0  0  0  0
  2  3  1  0  0  0  0
  3  4  1  0  0  0  0
  3  8  2  0  0  0  0
  4  5  2  0  0  0  0
  4 29  1  0  0  0  0
  5  6  1  0  0  0  0
  5 30  1  0  0  0  0
  6  7  2  0  0  0  0
  6 31  1  0  0  0  0
  7  8  1  0  0  0  0
  7 32  1  0  0  0  0
  8  9  1  0  0  0  0
  9 10  1  0  0  0  0
  9 33  1  0  0  0  0
 10 11  1  0  0  0  0
 10 34  1  0  0  0  0
 10 35  1  0  0  0  0
 11 12  1  0  0  0  0
 11 36  1  0  0  0  0
 11 37  1  0  0  0  0
 12 13  1  0  0  0  0
 12 38  1  0  0  0  0
 13 14  2  0  0  0  0
 13 15  1  0  0  0  0
 15 16  2  0  0  0  0
 15 21  1  0  0  0  0
 16 17  1  0  0  0  0
 16 39  1  0  0  0  0
 17 18  2  0  0  0  0
 17 19  1  0  0  0  0
 19 20  1  0  0  0  0
 19 40  1  0  0  0  0
 20 21  1  0  0  0  0
 20 25  2  0  0  0  0
 21 22  2  0  0  0  0
 22 23  1  0  0  0  0
 22 41  1  0  0  0  0
 23 24  2  0  0  0  0
 23 42  1  0  0  0  0
 24 25  1  0  0  0  0
 24 43  1  0  0  0  0
 25 44  1  0  0  0  0
M  END
$$$$
