
 OpenBabel07202414163D

 46 49  0  0  1  0  0  0  0  0999 V2000
   -2.4298   -0.1109    0.4826 C   0  0  0  0  0  0  0  0  0  0  0  0
   -0.9579   -0.0235    0.2181 C   0  0  0  0  0  0  0  0  0  0  0  0
   -0.1678   -1.1455   -0.0054 C   0  0  0  0  0  0  0  0  0  0  0  0
    1.1863   -0.9623   -0.2410 C   0  0  0  0  0  0  0  0  0  0  0  0
    1.8014    0.2505   -0.2740 N   0  0  0  0  0  0  0  0  0  0  0  0
    1.0244    1.3378   -0.0702 C   0  0  0  0  0  0  0  0  0  0  0  0
    1.6339    2.7192   -0.0485 C   0  0  2  0  0  0  0  0  0  0  0  0
    2.9077    2.9811   -0.8720 C   0  0  0  0  0  0  0  0  0  0  0  0
    3.9629    3.4373    0.1271 C   0  0  0  0  0  0  0  0  0  0  0  0
    3.1962    3.9137    1.2613 N   0  0  0  0  0  0  0  0  0  0  0  0
    3.5680    4.8085    2.2363 C   0  0  0  0  0  0  0  0  0  0  0  0
    2.8299    5.0749    3.1876 O   0  0  0  0  0  0  0  0  0  0  0  0
    4.9037    5.5135    2.0810 C   0  0  0  0  0  0  0  0  0  0  0  0
    4.8542    6.8011    1.2839 C   0  0  0  0  0  0  0  0  0  0  0  0
    3.6913    7.5778    1.2765 C   0  0  0  0  0  0  0  0  0  0  0  0
    3.5646    8.7697    0.6571 N   0  0  0  0  0  0  0  0  0  0  0  0
    4.6630    9.2428    0.0352 C   0  0  0  0  0  0  0  0  0  0  0  0
    5.8888    8.5834   -0.0182 C   0  0  0  0  0  0  0  0  0  0  0  0
    6.9952    9.1560   -0.6713 C   0  0  0  0  0  0  0  0  0  0  0  0
    8.2136    8.4856   -0.7245 C   0  0  0  0  0  0  0  0  0  0  0  0
    8.3368    7.2387   -0.1269 C   0  0  0  0  0  0  0  0  0  0  0  0
    7.2462    6.6670    0.5360 C   0  0  0  0  0  0  0  0  0  0  0  0
    5.9946    7.3217    0.6128 C   0  0  0  0  0  0  0  0  0  0  0  0
    1.9699    3.1554    1.3781 C   0  0  0  0  0  0  0  0  0  0  0  0
   -0.3401    1.2308    0.1863 C   0  0  0  0  0  0  0  0  0  0  0  0
   -2.7825   -1.1465    0.4855 H   0  0  0  0  0  0  0  0  0  0  0  0
   -2.9798    0.4315   -0.2940 H   0  0  0  0  0  0  0  0  0  0  0  0
   -2.6657    0.3307    1.4565 H   0  0  0  0  0  0  0  0  0  0  0  0
   -0.5917   -2.1460    0.0060 H   0  0  0  0  0  0  0  0  0  0  0  0
    1.8370   -1.8143   -0.4158 H   0  0  0  0  0  0  0  0  0  0  0  0
    0.8748    3.4040   -0.4513 H   0  0  0  0  0  0  0  0  0  0  0  0
    2.7030    3.8231   -1.5493 H   0  0  0  0  0  0  0  0  0  0  0  0
    3.2472    2.1513   -1.4967 H   0  0  0  0  0  0  0  0  0  0  0  0
    4.6160    4.2122   -0.2817 H   0  0  0  0  0  0  0  0  0  0  0  0
    4.5767    2.5951    0.4648 H   0  0  0  0  0  0  0  0  0  0  0  0
    5.6114    4.7961    1.6589 H   0  0  0  0  0  0  0  0  0  0  0  0
    5.2718    5.7469    3.0886 H   0  0  0  0  0  0  0  0  0  0  0  0
    2.7874    7.2653    1.7958 H   0  0  0  0  0  0  0  0  0  0  0  0
    4.5242   10.2132   -0.4345 H   0  0  0  0  0  0  0  0  0  0  0  0
    6.9127   10.1354   -1.1396 H   0  0  0  0  0  0  0  0  0  0  0  0
    9.0641    8.9361   -1.2293 H   0  0  0  0  0  0  0  0  0  0  0  0
    9.2835    6.7053   -0.1697 H   0  0  0  0  0  0  0  0  0  0  0  0
    7.4003    5.6932    0.9921 H   0  0  0  0  0  0  0  0  0  0  0  0
    1.1723    3.7626    1.8187 H   0  0  0  0  0  0  0  0  0  0  0  0
    2.1681    2.3103    2.0490 H   0  0  0  0  0  0  0  0  0  0  0  0
   -0.9325    2.1241    0.3756 H   0  0  0  0  0  0  0  0  0  0  0  0
  1  2  1  0  0  0  0
  1 26  1  0  0  0  0
  1 27  1  0  0  0  0
  1 28  1  0  0  0  0
  2  3  1  0  0  0  0
  2 25  2  0  0  0  0
  3  4  2  0  0  0  0
  3 29  1  0  0  0  0
  4  5  1  0  0  0  0
  4 30  1  0  0  0  0
  5  6  2  0  0  0  0
  6  7  1  0  0  0  0
  6 25  1  0  0  0  0
  7  8  1  0  0  0  0
  7 24  1  0  0  0  0
  7 31  1  6  0  0  0
  8  9  1  0  0  0  0
  8 32  1  0  0  0  0
  8 33  1  0  0  0  0
  9 10  1  0  0  0  0
  9 34  1  0  0  0  0
  9 35  1  0  0  0  0
 10 11  1  0  0  0  0
 10 24  1  0  0  0  0
 11 12  2  0  0  0  0
 11 13  1  0  0  0  0
 13 14  1  0  0  0  0
 13 36  1  0  0  0  0
 13 37  1  0  0  0  0
 14 15  1  0  0  0  0
 14 23  2  0  0  0  0
 15 16  2  0  0  0  0
 15 38  1  0  0  0  0
 16 17  1  0  0  0  0
 17 18  2  0  0  0  0
 17 39  1  0  0  0  0
 18 19  1  0  0  0  0
 18 23  1  0  0  0  0
 19 20  2  0  0  0  0
 19 40  1  0  0  0  0
 20 21  1  0  0  0  0
 20 41  1  0  0  0  0
 21 22  2  0  0  0  0
 21 42  1  0  0  0  0
 22 23  1  0  0  0  0
 22 43  1  0  0  0  0
 24 44  1  0  0  0  0
 24 45  1  0  0  0  0
 25 46  1  0  0  0  0
M  END
$$$$
