
 OpenBabel07202414153D

 47 49  0  0  1  0  0  0  0  0999 V2000
    1.7880   -6.0361    0.1429 C   0  0  0  0  0  0  0  0  0  0  0  0
    3.4279   -5.8897   -0.5115 S   0  0  0  0  0  0  0  0  0  0  0  0
    4.1851   -6.9767    0.0895 O   0  0  0  0  0  0  0  0  0  0  0  0
    3.3720   -5.7920   -1.9628 O   0  0  0  0  0  0  0  0  0  0  0  0
    4.1723   -4.3755    0.0890 C   0  0  0  0  0  0  0  0  0  0  0  0
    5.2106   -4.5356    1.0344 C   0  0  0  0  0  0  0  0  0  0  0  0
    6.0304   -3.4663    1.3875 C   0  0  0  0  0  0  0  0  0  0  0  0
    5.7835   -2.2138    0.8518 C   0  0  0  0  0  0  0  0  0  0  0  0
    4.7028   -2.0298   -0.0134 C   0  0  0  0  0  0  0  0  0  0  0  0
    3.9218   -3.1065   -0.4751 C   0  0  0  0  0  0  0  0  0  0  0  0
    2.7640   -2.8272   -1.3827 C   0  0  0  0  0  0  0  0  0  0  0  0
    1.7103   -3.3779   -1.0585 O   0  0  0  0  0  0  0  0  0  0  0  0
    2.8300   -1.9296   -2.4789 N   0  0  0  0  0  0  0  0  0  0  0  0
    1.5417   -1.5641   -3.0769 C   0  0  0  0  0  0  0  0  0  0  0  0
    1.6331   -1.0135   -4.5023 C   0  0  0  0  0  0  0  0  0  0  0  0
    2.6742    0.1082   -4.6751 C   0  0  0  0  0  0  0  0  0  0  0  0
    4.0081   -0.4780   -4.1810 C   0  0  0  0  0  0  0  0  0  0  0  0
    3.9472   -1.0235   -2.7568 C   0  0  0  0  0  0  0  0  0  0  0  0
    2.2725    1.4670   -4.0183 C   0  0  3  0  0  0  0  0  0  0  0  0
    1.0073    2.0846   -4.6323 C   0  0  0  0  0  0  0  0  0  0  0  0
    1.5376    3.0311   -5.6895 C   0  0  0  0  0  0  0  0  0  0  0  0
    2.6866    3.6509   -5.0327 N   0  0  0  0  0  0  0  0  0  0  0  0
    3.3150    2.5869   -4.2337 C   0  0  0  0  0  0  0  0  0  0  0  0
    1.5224   -7.0980    0.1154 H   0  0  0  0  0  0  0  0  0  0  0  0
    1.0719   -5.5007   -0.4760 H   0  0  0  0  0  0  0  0  0  0  0  0
    1.7655   -5.6933    1.1776 H   0  0  0  0  0  0  0  0  0  0  0  0
    5.4257   -5.5086    1.4755 H   0  0  0  0  0  0  0  0  0  0  0  0
    6.8620   -3.6150    2.0723 H   0  0  0  0  0  0  0  0  0  0  0  0
    6.4191   -1.3710    1.1137 H   0  0  0  0  0  0  0  0  0  0  0  0
    4.4853   -1.0107   -0.3070 H   0  0  0  0  0  0  0  0  0  0  0  0
    1.0723   -0.8279   -2.4133 H   0  0  0  0  0  0  0  0  0  0  0  0
    0.8860   -2.4427   -3.0915 H   0  0  0  0  0  0  0  0  0  0  0  0
    0.6405   -0.6968   -4.8339 H   0  0  0  0  0  0  0  0  0  0  0  0
    1.9164   -1.8396   -5.1687 H   0  0  0  0  0  0  0  0  0  0  0  0
    2.7829    0.2943   -5.7525 H   0  0  0  0  0  0  0  0  0  0  0  0
    4.8177    0.2555   -4.2462 H   0  0  0  0  0  0  0  0  0  0  0  0
    4.2933   -1.2984   -4.8528 H   0  0  0  0  0  0  0  0  0  0  0  0
    3.8457   -0.1737   -2.0731 H   0  0  0  0  0  0  0  0  0  0  0  0
    4.8899   -1.5359   -2.5484 H   0  0  0  0  0  0  0  0  0  0  0  0
    2.1083    1.3184   -2.9446 H   0  0  0  0  0  0  0  0  0  0  0  0
    0.4722    2.6591   -3.8639 H   0  0  0  0  0  0  0  0  0  0  0  0
    0.3008    1.3682   -5.0534 H   0  0  0  0  0  0  0  0  0  0  0  0
    0.7959    3.7765   -5.9928 H   0  0  0  0  0  0  0  0  0  0  0  0
    1.8631    2.4902   -6.5853 H   0  0  0  0  0  0  0  0  0  0  0  0
    2.3459    4.3789   -4.4032 H   0  0  0  0  0  0  0  0  0  0  0  0
    3.6389    3.0030   -3.2728 H   0  0  0  0  0  0  0  0  0  0  0  0
    4.2091    2.2450   -4.7602 H   0  0  0  0  0  0  0  0  0  0  0  0
  1  2  1  0  0  0  0
  1 24  1  0  0  0  0
  1 25  1  0  0  0  0
  1 26  1  0  0  0  0
  2  3  2  0  0  0  0
  2  4  2  0  0  0  0
  2  5  1  0  0  0  0
  5  6  1  0  0  0  0
  5 10  2  0  0  0  0
  6  7  2  0  0  0  0
  6 27  1  0  0  0  0
  7  8  1  0  0  0  0
  7 28  1  0  0  0  0
  8  9  2  0  0  0  0
  8 29  1  0  0  0  0
  9 10  1  0  0  0  0
  9 30  1  0  0  0  0
 10 11  1  0  0  0  0
 11 12  2  0  0  0  0
 11 13  1  0  0  0  0
 13 14  1  0  0  0  0
 13 18  1  0  0  0  0
 14 15  1  0  0  0  0
 14 31  1  0  0  0  0
 14 32  1  0  0  0  0
 15 16  1  0  0  0  0
 15 33  1  0  0  0  0
 15 34  1  0  0  0  0
 16 17  1  0  0  0  0
 16 19  1  0  0  0  0
 16 35  1  0  0  0  0
 17 18  1  0  0  0  0
 17 36  1  0  0  0  0
 17 37  1  0  0  0  0
 18 38  1  0  0  0  0
 18 39  1  0  0  0  0
 19 20  1  0  0  0  0
 19 23  1  0  0  0  0
 19 40  1  0  0  0  0
 20 21  1  0  0  0  0
 20 41  1  0  0  0  0
 20 42  1  0  0  0  0
 21 22  1  0  0  0  0
 21 43  1  0  0  0  0
 21 44  1  0  0  0  0
 22 23  1  0  0  0  0
 22 45  1  0  0  0  0
 23 46  1  0  0  0  0
 23 47  1  0  0  0  0
M  END
$$$$
