
 OpenBabel07202414113D

 39 42  0  0  1  0  0  0  0  0999 V2000
   10.5139   -0.5899    0.6769 Br  0  0  0  0  0  0  0  0  0  0  0  0
    9.2500   -1.8922    0.1520 C   0  0  0  0  0  0  0  0  0  0  0  0
    9.6574   -2.9737   -0.6285 C   0  0  0  0  0  0  0  0  0  0  0  0
    8.7228   -3.9447   -1.0069 C   0  0  0  0  0  0  0  0  0  0  0  0
    7.3972   -3.8152   -0.6165 C   0  0  0  0  0  0  0  0  0  0  0  0
    6.9777   -2.7308    0.1645 C   0  0  0  0  0  0  0  0  0  0  0  0
    7.9206   -1.7668    0.5551 C   0  0  0  0  0  0  0  0  0  0  0  0
    5.5413   -2.6474    0.6240 C   0  0  3  0  0  0  0  0  0  0  0  0
    5.3465   -3.1201    2.0731 C   0  0  0  0  0  0  0  0  0  0  0  0
    4.8796   -2.3491    2.9125 O   0  0  0  0  0  0  0  0  0  0  0  0
    5.7078   -4.4318    2.2973 N   0  0  0  0  0  0  0  0  0  0  0  0
    5.7335   -5.1337    3.5287 C   0  0  0  0  0  0  0  0  0  0  0  0
    5.4272   -4.5388    4.7505 C   0  0  0  0  0  0  0  0  0  0  0  0
    5.6385   -5.1185    5.9559 N   0  0  0  0  0  0  0  0  0  0  0  0
    6.1216   -6.3766    5.9431 C   0  0  0  0  0  0  0  0  0  0  0  0
    6.3345   -7.1299    4.7896 C   0  0  0  0  0  0  0  0  0  0  0  0
    6.7026   -8.4858    4.8635 C   0  0  0  0  0  0  0  0  0  0  0  0
    6.8716   -9.2429    3.7062 C   0  0  0  0  0  0  0  0  0  0  0  0
    6.7081   -8.6442    2.4653 C   0  0  0  0  0  0  0  0  0  0  0  0
    6.3549   -7.2953    2.3807 C   0  0  0  0  0  0  0  0  0  0  0  0
    6.1459   -6.4983    3.5395 C   0  0  0  0  0  0  0  0  0  0  0  0
    4.5937   -3.3739   -0.3250 C   0  0  0  0  0  0  0  0  0  0  0  0
    5.1227   -4.7085   -0.7815 C   0  0  0  0  0  0  0  0  0  0  0  0
    4.3971   -5.6694   -1.0336 O   0  0  0  0  0  0  0  0  0  0  0  0
    6.4804   -4.8036   -0.9687 N   0  0  0  0  0  0  0  0  0  0  0  0
   10.6947   -3.0700   -0.9419 H   0  0  0  0  0  0  0  0  0  0  0  0
    9.0579   -4.7839   -1.6149 H   0  0  0  0  0  0  0  0  0  0  0  0
    7.6157   -0.9267    1.1764 H   0  0  0  0  0  0  0  0  0  0  0  0
    5.2488   -1.5867    0.6078 H   0  0  0  0  0  0  0  0  0  0  0  0
    6.1405   -4.9164    1.5241 H   0  0  0  0  0  0  0  0  0  0  0  0
    5.0087   -3.5399    4.8271 H   0  0  0  0  0  0  0  0  0  0  0  0
    6.3285   -6.7854    6.9293 H   0  0  0  0  0  0  0  0  0  0  0  0
    6.8222   -8.9726    5.8296 H   0  0  0  0  0  0  0  0  0  0  0  0
    7.1154  -10.2997    3.7750 H   0  0  0  0  0  0  0  0  0  0  0  0
    6.8303   -9.2307    1.5575 H   0  0  0  0  0  0  0  0  0  0  0  0
    6.1945   -6.8969    1.3845 H   0  0  0  0  0  0  0  0  0  0  0  0
    4.4453   -2.7786   -1.2340 H   0  0  0  0  0  0  0  0  0  0  0  0
    3.6119   -3.5253    0.1395 H   0  0  0  0  0  0  0  0  0  0  0  0
    6.7976   -5.6522   -1.4246 H   0  0  0  0  0  0  0  0  0  0  0  0
  1  2  1  0  0  0  0
  2  3  1  0  0  0  0
  2  7  2  0  0  0  0
  3  4  2  0  0  0  0
  3 26  1  0  0  0  0
  4  5  1  0  0  0  0
  4 27  1  0  0  0  0
  5  6  2  0  0  0  0
  5 25  1  0  0  0  0
  6  7  1  0  0  0  0
  6  8  1  0  0  0  0
  7 28  1  0  0  0  0
  8  9  1  0  0  0  0
  8 22  1  0  0  0  0
  8 29  1  0  0  0  0
  9 10  2  0  0  0  0
  9 11  1  0  0  0  0
 11 12  1  0  0  0  0
 11 30  1  0  0  0  0
 12 13  1  0  0  0  0
 12 21  2  0  0  0  0
 13 14  2  0  0  0  0
 13 31  1  0  0  0  0
 14 15  1  0  0  0  0
 15 16  2  0  0  0  0
 15 32  1  0  0  0  0
 16 17  1  0  0  0  0
 16 21  1  0  0  0  0
 17 18  2  0  0  0  0
 17 33  1  0  0  0  0
 18 19  1  0  0  0  0
 18 34  1  0  0  0  0
 19 20  2  0  0  0  0
 19 35  1  0  0  0  0
 20 21  1  0  0  0  0
 20 36  1  0  0  0  0
 22 23  1  0  0  0  0
 22 37  1  0  0  0  0
 22 38  1  0  0  0  0
 23 24  2  0  0  0  0
 23 25  1  0  0  0  0
 25 39  1  0  0  0  0
M  END
$$$$
