
 OpenBabel07202414173D

 38 41  0  0  1  0  0  0  0  0999 V2000
    1.1670    0.0738   -0.0905 Cl  0  0  0  0  0  0  0  0  0  0  0  0
    2.8904    0.0235    0.0086 C   0  0  0  0  0  0  0  0  0  0  0  0
    3.5803    1.2406   -0.0139 C   0  0  0  0  0  0  0  0  0  0  0  0
    4.9761    1.2845    0.0640 C   0  0  0  0  0  0  0  0  0  0  0  0
    5.6935    0.0778    0.1075 C   0  0  0  0  0  0  0  0  0  0  0  0
    5.0025   -1.1466    0.1474 C   0  0  0  0  0  0  0  0  0  0  0  0
    3.6029   -1.1732    0.0999 C   0  0  0  0  0  0  0  0  0  0  0  0
    2.8273   -2.7146    0.1436 Cl  0  0  0  0  0  0  0  0  0  0  0  0
    7.2080    0.1064    0.0707 C   0  0  3  0  0  0  0  0  0  0  0  0
    7.8979   -0.1168    1.4007 C   0  0  0  0  0  0  0  0  0  0  0  0
    9.0684   -0.4647    1.4549 O   0  0  0  0  0  0  0  0  0  0  0  0
    7.1606    0.1368    2.6167 N   0  0  0  0  0  0  0  0  0  0  0  0
    7.7375   -0.1313    3.8581 C   0  0  0  0  0  0  0  0  0  0  0  0
    9.0765   -0.1535    4.2028 C   0  0  0  0  0  0  0  0  0  0  0  0
    9.2666   -0.7440    5.4246 N   0  0  0  0  0  0  0  0  0  0  0  0
    8.0620   -1.0723    5.8348 C   0  0  0  0  0  0  0  0  0  0  0  0
    7.6277   -1.8765    6.9230 C   0  0  0  0  0  0  0  0  0  0  0  0
    6.3101   -2.0043    7.1703 C   0  0  0  0  0  0  0  0  0  0  0  0
    5.3160   -1.2913    6.3807 C   0  0  0  0  0  0  0  0  0  0  0  0
    5.7157   -0.6018    5.2974 C   0  0  0  0  0  0  0  0  0  0  0  0
    7.0782   -0.5468    5.0002 N   0  0  0  0  0  0  0  0  0  0  0  0
    7.7471    1.4191   -0.5103 C   0  0  0  0  0  0  0  0  0  0  0  0
    7.0606    2.5988    0.1614 C   0  0  0  0  0  0  0  0  0  0  0  0
    5.6283    2.5034   -0.0391 N   0  0  0  0  0  0  0  0  0  0  0  0
    3.0178    2.1675   -0.1167 H   0  0  0  0  0  0  0  0  0  0  0  0
    5.5481   -2.0891    0.1777 H   0  0  0  0  0  0  0  0  0  0  0  0
    7.5372   -0.7123   -0.5852 H   0  0  0  0  0  0  0  0  0  0  0  0
    6.1689    0.3353    2.5683 H   0  0  0  0  0  0  0  0  0  0  0  0
    9.9293    0.1645    3.6160 H   0  0  0  0  0  0  0  0  0  0  0  0
    8.3733   -2.4168    7.4968 H   0  0  0  0  0  0  0  0  0  0  0  0
    5.9596   -2.6642    7.9592 H   0  0  0  0  0  0  0  0  0  0  0  0
    4.2726   -1.3628    6.6720 H   0  0  0  0  0  0  0  0  0  0  0  0
    5.0242   -0.0778    4.6519 H   0  0  0  0  0  0  0  0  0  0  0  0
    7.5516    1.4471   -1.5892 H   0  0  0  0  0  0  0  0  0  0  0  0
    8.8335    1.4959   -0.3784 H   0  0  0  0  0  0  0  0  0  0  0  0
    7.4275    3.5346   -0.2702 H   0  0  0  0  0  0  0  0  0  0  0  0
    7.2797    2.6295    1.2349 H   0  0  0  0  0  0  0  0  0  0  0  0
    5.0861    3.3387    0.1736 H   0  0  0  0  0  0  0  0  0  0  0  0
  1  2  1  0  0  0  0
  2  3  1  0  0  0  0
  2  7  2  0  0  0  0
  3  4  2  0  0  0  0
  3 25  1  0  0  0  0
  4  5  1  0  0  0  0
  4 24  1  0  0  0  0
  5  6  2  0  0  0  0
  5  9  1  0  0  0  0
  6  7  1  0  0  0  0
  6 26  1  0  0  0  0
  7  8  1  0  0  0  0
  9 10  1  0  0  0  0
  9 22  1  0  0  0  0
  9 27  1  0  0  0  0
 10 11  2  0  0  0  0
 10 12  1  0  0  0  0
 12 13  1  0  0  0  0
 12 28  1  0  0  0  0
 13 14  2  0  0  0  0
 13 21  1  0  0  0  0
 14 15  1  0  0  0  0
 14 29  1  0  0  0  0
 15 16  2  0  0  0  0
 16 17  1  0  0  0  0
 16 21  1  0  0  0  0
 17 18  2  0  0  0  0
 17 30  1  0  0  0  0
 18 19  1  0  0  0  0
 18 31  1  0  0  0  0
 19 20  2  0  0  0  0
 19 32  1  0  0  0  0
 20 21  1  0  0  0  0
 20 33  1  0  0  0  0
 22 23  1  0  0  0  0
 22 34  1  0  0  0  0
 22 35  1  0  0  0  0
 23 24  1  0  0  0  0
 23 36  1  0  0  0  0
 23 37  1  0  0  0  0
 24 38  1  0  0  0  0
M  END
$$$$
