
 OpenBabel07202414153D

 42 45  0  0  1  0  0  0  0  0999 V2000
    2.5667    0.1422   -1.7676 C   0  0  0  0  0  0  0  0  0  0  0  0
    2.5840    0.0456   -0.2455 C   0  0  1  0  0  0  0  0  0  0  0  0
    3.1920   -1.2416    0.3071 C   0  0  0  0  0  0  0  0  0  0  0  0
    4.6957   -1.3065    0.0573 C   0  0  1  0  0  0  0  0  0  0  0  0
    5.0771   -1.6991   -1.3798 C   0  0  0  0  0  0  0  0  0  0  0  0
    5.7326   -0.9581   -2.1236 O   0  0  0  0  0  0  0  0  0  0  0  0
    4.6177   -2.9609   -1.7457 N   0  0  0  0  0  0  0  0  0  0  0  0
    4.9387   -3.6713   -2.9330 C   0  0  0  0  0  0  0  0  0  0  0  0
    5.7407   -3.1349   -3.9429 C   0  0  0  0  0  0  0  0  0  0  0  0
    6.2917   -3.8593   -4.9417 N   0  0  0  0  0  0  0  0  0  0  0  0
    5.9374   -5.1552   -5.0106 C   0  0  0  0  0  0  0  0  0  0  0  0
    4.9598   -5.7395   -4.2100 C   0  0  0  0  0  0  0  0  0  0  0  0
    4.4534   -7.0145   -4.5102 C   0  0  0  0  0  0  0  0  0  0  0  0
    3.4487   -7.5805   -3.7282 C   0  0  0  0  0  0  0  0  0  0  0  0
    3.0043   -6.9121   -2.5969 C   0  0  0  0  0  0  0  0  0  0  0  0
    3.5149   -5.6483   -2.2804 C   0  0  0  0  0  0  0  0  0  0  0  0
    4.4702   -5.0038   -3.1075 C   0  0  0  0  0  0  0  0  0  0  0  0
    5.3101    0.0153    0.4696 C   0  0  0  0  0  0  0  0  0  0  0  0
    6.6709    0.0790    0.7815 C   0  0  0  0  0  0  0  0  0  0  0  0
    7.2627    1.3003    1.1181 C   0  0  0  0  0  0  0  0  0  0  0  0
    8.9408    1.3608    1.4940 Cl  0  0  0  0  0  0  0  0  0  0  0  0
    6.4975    2.4543    1.1529 C   0  0  0  0  0  0  0  0  0  0  0  0
    5.1309    2.3992    0.8624 C   0  0  0  0  0  0  0  0  0  0  0  0
    4.5394    1.1714    0.5242 C   0  0  0  0  0  0  0  0  0  0  0  0
    3.1924    1.2250    0.2957 O   0  0  0  0  0  0  0  0  0  0  0  0
    2.2052   -0.7854   -2.2245 H   0  0  0  0  0  0  0  0  0  0  0  0
    3.5502    0.3874   -2.1753 H   0  0  0  0  0  0  0  0  0  0  0  0
    1.9091    0.9602   -2.0827 H   0  0  0  0  0  0  0  0  0  0  0  0
    1.5383    0.0714    0.0871 H   0  0  0  0  0  0  0  0  0  0  0  0
    2.6703   -2.1167   -0.0902 H   0  0  0  0  0  0  0  0  0  0  0  0
    3.0344   -1.2487    1.3979 H   0  0  0  0  0  0  0  0  0  0  0  0
    5.1130   -2.0932    0.7013 H   0  0  0  0  0  0  0  0  0  0  0  0
    4.1724   -3.5002   -1.0185 H   0  0  0  0  0  0  0  0  0  0  0  0
    5.9919   -2.0818   -3.9957 H   0  0  0  0  0  0  0  0  0  0  0  0
    6.4680   -5.7251   -5.7681 H   0  0  0  0  0  0  0  0  0  0  0  0
    4.7970   -7.5507   -5.3939 H   0  0  0  0  0  0  0  0  0  0  0  0
    3.0133   -8.5356   -4.0082 H   0  0  0  0  0  0  0  0  0  0  0  0
    2.2367   -7.3600   -1.9698 H   0  0  0  0  0  0  0  0  0  0  0  0
    3.1054   -5.1622   -1.4014 H   0  0  0  0  0  0  0  0  0  0  0  0
    7.2945   -0.8086    0.7389 H   0  0  0  0  0  0  0  0  0  0  0  0
    6.9499    3.4131    1.4018 H   0  0  0  0  0  0  0  0  0  0  0  0
    4.5306    3.2958    0.8923 H   0  0  0  0  0  0  0  0  0  0  0  0
  1 26  1  0  0  0  0
  1 27  1  0  0  0  0
  1 28  1  0  0  0  0
  2  3  1  0  0  0  0
  2 25  1  0  0  0  0
  2  1  1  0  0  0  0
  2 29  1  1  0  0  0
  3  4  1  0  0  0  0
  3 30  1  0  0  0  0
  3 31  1  0  0  0  0
  4  5  1  0  0  0  0
  4 18  1  0  0  0  0
  4 32  1  1  0  0  0
  5  6  2  0  0  0  0
  5  7  1  0  0  0  0
  7  8  1  0  0  0  0
  7 33  1  0  0  0  0
  8  9  1  0  0  0  0
  8 17  2  0  0  0  0
  9 10  2  0  0  0  0
  9 34  1  0  0  0  0
 10 11  1  0  0  0  0
 11 12  2  0  0  0  0
 11 35  1  0  0  0  0
 12 13  1  0  0  0  0
 12 17  1  0  0  0  0
 13 14  2  0  0  0  0
 13 36  1  0  0  0  0
 14 15  1  0  0  0  0
 14 37  1  0  0  0  0
 15 16  2  0  0  0  0
 15 38  1  0  0  0  0
 16 17  1  0  0  0  0
 16 39  1  0  0  0  0
 18 19  1  0  0  0  0
 18 24  2  0  0  0  0
 19 20  2  0  0  0  0
 19 40  1  0  0  0  0
 20 21  1  0  0  0  0
 20 22  1  0  0  0  0
 22 23  2  0  0  0  0
 22 41  1  0  0  0  0
 23 24  1  0  0  0  0
 23 42  1  0  0  0  0
 24 25  1  0  0  0  0
M  END
$$$$
