
 OpenBabel07202414173D

 52 55  0  0  0  0  0  0  0  0999 V2000
   -2.1019   -0.3280    0.0366 Cl  0  0  0  0  0  0  0  0  0  0  0  0
   -0.3940   -0.1340   -0.0211 C   0  0  0  0  0  0  0  0  0  0  0  0
    0.1517    1.1386   -0.0440 C   0  0  0  0  0  0  0  0  0  0  0  0
    1.5362    1.2855   -0.0877 C   0  0  0  0  0  0  0  0  0  0  0  0
    2.4024    0.1670   -0.1118 C   0  0  0  0  0  0  0  0  0  0  0  0
    3.8865    0.4619   -0.0513 C   0  0  0  0  0  0  0  0  0  0  0  0
    4.6609   -0.0235   -1.2103 N   0  0  0  0  0  0  0  0  0  0  0  0
    6.2793    0.4536   -1.0701 S   0  0  0  0  0  0  0  0  0  0  0  0
    6.3061    1.8952   -1.0324 O   0  0  0  0  0  0  0  0  0  0  0  0
    6.8964   -0.3665   -0.0699 O   0  0  0  0  0  0  0  0  0  0  0  0
    6.7897   -0.0293   -2.5675 N   0  0  0  0  0  0  0  0  0  0  0  0
    7.2028   -1.3800   -3.0187 C   0  0  0  0  0  0  0  0  0  0  0  0
    7.9303   -0.7269   -4.2210 C   0  0  0  0  0  0  0  0  0  0  0  0
    7.1501   -0.6634   -5.4388 C   0  0  0  0  0  0  0  0  0  0  0  0
    6.5302   -0.6045   -6.4145 N   0  0  0  0  0  0  0  0  0  0  0  0
    7.8936    0.5621   -3.3654 C   0  0  0  0  0  0  0  0  0  0  0  0
    1.8454   -1.1313   -0.0880 C   0  0  0  0  0  0  0  0  0  0  0  0
    2.6736   -2.4070   -0.0392 C   0  0  0  0  0  0  0  0  0  0  0  0
    2.3926   -3.3842   -1.1846 C   0  0  0  0  0  0  0  0  0  0  0  0
    1.2493   -3.6829   -1.5272 O   0  0  0  0  0  0  0  0  0  0  0  0
    3.5214   -3.9818   -1.7229 N   0  0  0  0  0  0  0  0  0  0  0  0
    3.4357   -4.9525   -2.7597 C   0  0  0  0  0  0  0  0  0  0  0  0
    2.5968   -4.7628   -3.8611 C   0  0  0  0  0  0  0  0  0  0  0  0
    2.4948   -5.6188   -4.9052 N   0  0  0  0  0  0  0  0  0  0  0  0
    3.2482   -6.7361   -4.8399 C   0  0  0  0  0  0  0  0  0  0  0  0
    4.1140   -7.0481   -3.7897 C   0  0  0  0  0  0  0  0  0  0  0  0
    4.8558   -8.2432   -3.7787 C   0  0  0  0  0  0  0  0  0  0  0  0
    5.6849   -8.5549   -2.7030 C   0  0  0  0  0  0  0  0  0  0  0  0
    5.7748   -7.6832   -1.6257 C   0  0  0  0  0  0  0  0  0  0  0  0
    5.0518   -6.4891   -1.6303 C   0  0  0  0  0  0  0  0  0  0  0  0
    4.2174   -6.1326   -2.7147 C   0  0  0  0  0  0  0  0  0  0  0  0
    0.4377   -1.2531   -0.0314 C   0  0  0  0  0  0  0  0  0  0  0  0
   -0.4867    2.0172   -0.0134 H   0  0  0  0  0  0  0  0  0  0  0  0
    1.9406    2.2977   -0.0764 H   0  0  0  0  0  0  0  0  0  0  0  0
    4.2870    0.0572    0.8837 H   0  0  0  0  0  0  0  0  0  0  0  0
    4.0077    1.5519   -0.0164 H   0  0  0  0  0  0  0  0  0  0  0  0
    4.2893    0.3694   -2.0747 H   0  0  0  0  0  0  0  0  0  0  0  0
    6.3505   -2.0273   -3.2385 H   0  0  0  0  0  0  0  0  0  0  0  0
    7.8716   -1.8867   -2.3128 H   0  0  0  0  0  0  0  0  0  0  0  0
    8.9418   -1.1116   -4.3861 H   0  0  0  0  0  0  0  0  0  0  0  0
    7.5966    1.4891   -3.8645 H   0  0  0  0  0  0  0  0  0  0  0  0
    8.8015    0.7449   -2.7775 H   0  0  0  0  0  0  0  0  0  0  0  0
    2.4326   -2.9328    0.8950 H   0  0  0  0  0  0  0  0  0  0  0  0
    3.7446   -2.1922    0.0159 H   0  0  0  0  0  0  0  0  0  0  0  0
    4.3460   -3.9961   -1.1392 H   0  0  0  0  0  0  0  0  0  0  0  0
    1.9866   -3.8682   -3.9619 H   0  0  0  0  0  0  0  0  0  0  0  0
    3.1242   -7.4069   -5.6872 H   0  0  0  0  0  0  0  0  0  0  0  0
    4.7829   -8.9461   -4.6067 H   0  0  0  0  0  0  0  0  0  0  0  0
    6.2500   -9.4834   -2.6999 H   0  0  0  0  0  0  0  0  0  0  0  0
    6.3988   -7.9333   -0.7712 H   0  0  0  0  0  0  0  0  0  0  0  0
    5.1284   -5.8590   -0.7497 H   0  0  0  0  0  0  0  0  0  0  0  0
   -0.0228   -2.2400    0.0095 H   0  0  0  0  0  0  0  0  0  0  0  0
  1  2  1  0  0  0  0
  2  3  1  0  0  0  0
  2 32  2  0  0  0  0
  3  4  2  0  0  0  0
  3 33  1  0  0  0  0
  4  5  1  0  0  0  0
  4 34  1  0  0  0  0
  5  6  1  0  0  0  0
  5 17  2  0  0  0  0
  6  7  1  0  0  0  0
  6 35  1  0  0  0  0
  6 36  1  0  0  0  0
  7  8  1  0  0  0  0
  7 37  1  0  0  0  0
  8  9  2  0  0  0  0
  8 10  2  0  0  0  0
  8 11  1  0  0  0  0
 11 12  1  0  0  0  0
 11 16  1  0  0  0  0
 12 13  1  0  0  0  0
 12 38  1  0  0  0  0
 12 39  1  0  0  0  0
 13 14  1  0  0  0  0
 13 16  1  0  0  0  0
 13 40  1  0  0  0  0
 14 15  3  0  0  0  0
 16 41  1  0  0  0  0
 16 42  1  0  0  0  0
 17 18  1  0  0  0  0
 17 32  1  0  0  0  0
 18 19  1  0  0  0  0
 18 43  1  0  0  0  0
 18 44  1  0  0  0  0
 19 20  2  0  0  0  0
 19 21  1  0  0  0  0
 21 22  1  0  0  0  0
 21 45  1  0  0  0  0
 22 23  1  0  0  0  0
 22 31  2  0  0  0  0
 23 24  2  0  0  0  0
 23 46  1  0  0  0  0
 24 25  1  0  0  0  0
 25 26  2  0  0  0  0
 25 47  1  0  0  0  0
 26 27  1  0  0  0  0
 26 31  1  0  0  0  0
 27 28  2  0  0  0  0
 27 48  1  0  0  0  0
 28 29  1  0  0  0  0
 28 49  1  0  0  0  0
 29 30  2  0  0  0  0
 29 50  1  0  0  0  0
 30 31  1  0  0  0  0
 30 51  1  0  0  0  0
 32 52  1  0  0  0  0
M  END
$$$$
