
 OpenBabel07202414123D

 38 40  0  0  0  0  0  0  0  0999 V2000
    2.7852    0.6320   -1.4707 C   0  0  0  0  0  0  0  0  0  0  0  0
    2.5177   -0.0327   -0.0986 C   0  0  0  0  0  0  0  0  0  0  0  0
    1.0270   -0.4167   -0.0276 C   0  0  0  0  0  0  0  0  0  0  0  0
    3.3564   -1.3322   -0.0804 C   0  0  0  0  0  0  0  0  0  0  0  0
    2.8477    0.9039    1.0810 C   0  0  0  0  0  0  0  0  0  0  0  0
    2.7429    2.3000    0.9593 C   0  0  0  0  0  0  0  0  0  0  0  0
    3.0515    3.1564    2.0249 C   0  0  0  0  0  0  0  0  0  0  0  0
    3.4622    2.6522    3.2625 C   0  0  0  0  0  0  0  0  0  0  0  0
    3.7994    3.5762    4.3391 C   0  0  0  0  0  0  0  0  0  0  0  0
    3.8266    4.8944    4.3442 N   0  0  0  0  0  0  0  0  0  0  0  0
    4.2148    5.2752    5.6114 N   0  0  0  0  0  0  0  0  0  0  0  0
    4.4090    4.1666    6.2959 C   0  0  0  0  0  0  0  0  0  0  0  0
    4.8431    4.0965    7.9767 S   0  0  0  0  0  0  0  0  0  0  0  0
    6.3255    5.0326    7.9299 C   0  0  0  0  0  0  0  0  0  0  0  0
    6.5483    6.3089    7.4421 C   0  0  0  0  0  0  0  0  0  0  0  0
    7.8298    6.8077    7.6167 N   0  0  0  0  0  0  0  0  0  0  0  0
    8.5509    5.9016    8.2461 C   0  0  0  0  0  0  0  0  0  0  0  0
    9.9337    6.1328    8.6105 N   0  3  0  0  0  0  0  0  0  0  0  0
   10.4195    7.2363    8.3227 O   0  5  0  0  0  0  0  0  0  0  0  0
   10.5416    5.2195    9.1865 O   0  0  0  0  0  0  0  0  0  0  0  0
    7.7748    4.4390    8.6431 S   0  0  0  0  0  0  0  0  0  0  0  0
    4.1574    3.0430    5.5502 O   0  0  0  0  0  0  0  0  0  0  0  0
    3.5353    1.2631    3.4099 C   0  0  0  0  0  0  0  0  0  0  0  0
    3.2281    0.4058    2.3398 C   0  0  0  0  0  0  0  0  0  0  0  0
    2.6075   -0.0709   -2.2931 H   0  0  0  0  0  0  0  0  0  0  0  0
    3.8231    0.9777   -1.5474 H   0  0  0  0  0  0  0  0  0  0  0  0
    2.1284    1.4890   -1.6535 H   0  0  0  0  0  0  0  0  0  0  0  0
    0.7540   -1.0879   -0.8507 H   0  0  0  0  0  0  0  0  0  0  0  0
    0.3809    0.4664   -0.0937 H   0  0  0  0  0  0  0  0  0  0  0  0
    0.7886   -0.9315    0.9103 H   0  0  0  0  0  0  0  0  0  0  0  0
    3.1253   -1.9605   -0.9495 H   0  0  0  0  0  0  0  0  0  0  0  0
    3.1581   -1.9472    0.8032 H   0  0  0  0  0  0  0  0  0  0  0  0
    4.4297   -1.1119   -0.1068 H   0  0  0  0  0  0  0  0  0  0  0  0
    2.4178    2.7630    0.0316 H   0  0  0  0  0  0  0  0  0  0  0  0
    2.9666    4.2319    1.8722 H   0  0  0  0  0  0  0  0  0  0  0  0
    5.8090    6.9371    6.9559 H   0  0  0  0  0  0  0  0  0  0  0  0
    3.8358    0.8214    4.3581 H   0  0  0  0  0  0  0  0  0  0  0  0
    3.2940   -0.6640    2.5223 H   0  0  0  0  0  0  0  0  0  0  0  0
  1  2  1  0  0  0  0
  1 25  1  0  0  0  0
  1 26  1  0  0  0  0
  1 27  1  0  0  0  0
  2  3  1  0  0  0  0
  2  4  1  0  0  0  0
  2  5  1  0  0  0  0
  3 28  1  0  0  0  0
  3 29  1  0  0  0  0
  3 30  1  0  0  0  0
  4 31  1  0  0  0  0
  4 32  1  0  0  0  0
  4 33  1  0  0  0  0
  5  6  1  0  0  0  0
  5 24  2  0  0  0  0
  6  7  2  0  0  0  0
  6 34  1  0  0  0  0
  7  8  1  0  0  0  0
  7 35  1  0  0  0  0
  8  9  1  0  0  0  0
  8 23  2  0  0  0  0
  9 10  2  0  0  0  0
  9 22  1  0  0  0  0
 10 11  1  0  0  0  0
 11 12  2  0  0  0  0
 12 13  1  0  0  0  0
 12 22  1  0  0  0  0
 13 14  1  0  0  0  0
 14 15  2  0  0  0  0
 14 21  1  0  0  0  0
 15 16  1  0  0  0  0
 15 36  1  0  0  0  0
 16 17  2  0  0  0  0
 17 18  1  0  0  0  0
 17 21  1  0  0  0  0
 18 19  1  0  0  0  0
 18 20  2  0  0  0  0
 23 24  1  0  0  0  0
 23 37  1  0  0  0  0
 24 38  1  0  0  0  0
M  CHG  2  18   1  19  -1
M  END
$$$$
