
 OpenBabel07202414163D

 36 38  0  0  0  0  0  0  0  0999 V2000
    0.9602    0.0575    0.0528 C   0  0  0  0  0  0  0  0  0  0  0  0
    2.4493    0.0885    0.0671 C   0  0  0  0  0  0  0  0  0  0  0  0
    3.2852    1.1886    0.1235 C   0  0  0  0  0  0  0  0  0  0  0  0
    4.6624    0.8123    0.1683 C   0  0  0  0  0  0  0  0  0  0  0  0
    5.8683    1.5912    0.2535 C   0  0  0  0  0  0  0  0  0  0  0  0
    7.0210    1.0246    0.3284 N   0  0  0  0  0  0  0  0  0  0  0  0
    7.1498   -0.3464    0.3215 C   0  0  0  0  0  0  0  0  0  0  0  0
    8.2710   -0.8530    0.4443 O   0  0  0  0  0  0  0  0  0  0  0  0
    6.0329   -1.1880    0.1879 N   0  0  0  0  0  0  0  0  0  0  0  0
    4.8069   -0.5491    0.1369 C   0  0  0  0  0  0  0  0  0  0  0  0
    3.3408   -1.3768    0.0322 S   0  0  0  0  0  0  0  0  0  0  0  0
    6.2716   -2.6253    0.0517 C   0  0  0  0  0  0  0  0  0  0  0  0
    6.5782   -3.3332    1.3762 C   0  0  0  0  0  0  0  0  0  0  0  0
    5.7043   -3.9150    2.0151 O   0  0  0  0  0  0  0  0  0  0  0  0
    7.8984   -3.1943    1.7801 N   0  0  0  0  0  0  0  0  0  0  0  0
    8.4194   -3.7691    2.9530 C   0  0  0  0  0  0  0  0  0  0  0  0
    9.2462   -2.9783    3.7543 C   0  0  0  0  0  0  0  0  0  0  0  0
    9.7659   -3.4864    4.9456 C   0  0  0  0  0  0  0  0  0  0  0  0
    9.5166   -4.8106    5.3034 C   0  0  0  0  0  0  0  0  0  0  0  0
    8.7346   -5.6150    4.4744 C   0  0  0  0  0  0  0  0  0  0  0  0
    8.1654   -5.0965    3.3102 C   0  0  0  0  0  0  0  0  0  0  0  0
    8.4920   -7.2694    4.8884 Cl  0  0  0  0  0  0  0  0  0  0  0  0
    5.6981    2.9411    0.2437 N   0  0  0  0  0  0  0  0  0  0  0  0
    0.5485    1.0725    0.0550 H   0  0  0  0  0  0  0  0  0  0  0  0
    0.5795   -0.4578    0.9408 H   0  0  0  0  0  0  0  0  0  0  0  0
    0.5848   -0.4544   -0.8390 H   0  0  0  0  0  0  0  0  0  0  0  0
    2.9170    2.2058    0.1550 H   0  0  0  0  0  0  0  0  0  0  0  0
    7.1189   -2.7807   -0.6283 H   0  0  0  0  0  0  0  0  0  0  0  0
    5.4202   -3.1289   -0.4158 H   0  0  0  0  0  0  0  0  0  0  0  0
    8.3732   -2.3611    1.4247 H   0  0  0  0  0  0  0  0  0  0  0  0
    9.4429   -1.9422    3.4878 H   0  0  0  0  0  0  0  0  0  0  0  0
   10.3591   -2.8477    5.5944 H   0  0  0  0  0  0  0  0  0  0  0  0
    9.9352   -5.2087    6.2239 H   0  0  0  0  0  0  0  0  0  0  0  0
    7.5620   -5.7366    2.6729 H   0  0  0  0  0  0  0  0  0  0  0  0
    4.9112    3.3080   -0.2766 H   0  0  0  0  0  0  0  0  0  0  0  0
    6.5611    3.4438    0.0642 H   0  0  0  0  0  0  0  0  0  0  0  0
  1  2  1  0  0  0  0
  1 24  1  0  0  0  0
  1 25  1  0  0  0  0
  1 26  1  0  0  0  0
  2  3  2  0  0  0  0
  2 11  1  0  0  0  0
  3  4  1  0  0  0  0
  3 27  1  0  0  0  0
  4  5  1  0  0  0  0
  4 10  2  0  0  0  0
  5  6  2  0  0  0  0
  5 23  1  0  0  0  0
  6  7  1  0  0  0  0
  7  8  2  0  0  0  0
  7  9  1  0  0  0  0
  9 10  1  0  0  0  0
  9 12  1  0  0  0  0
 10 11  1  0  0  0  0
 12 13  1  0  0  0  0
 12 28  1  0  0  0  0
 12 29  1  0  0  0  0
 13 14  2  0  0  0  0
 13 15  1  0  0  0  0
 15 16  1  0  0  0  0
 15 30  1  0  0  0  0
 16 17  1  0  0  0  0
 16 21  2  0  0  0  0
 17 18  2  0  0  0  0
 17 31  1  0  0  0  0
 18 19  1  0  0  0  0
 18 32  1  0  0  0  0
 19 20  2  0  0  0  0
 19 33  1  0  0  0  0
 20 21  1  0  0  0  0
 20 22  1  0  0  0  0
 21 34  1  0  0  0  0
 23 35  1  0  0  0  0
 23 36  1  0  0  0  0
M  END
$$$$
