
 OpenBabel07202414163D

 47 49  0  0  1  0  0  0  0  0999 V2000
   -5.3390    2.3541   -4.5514 C   0  0  0  0  0  0  0  0  0  0  0  0
   -4.0582    3.0919   -4.8145 C   0  0  0  0  0  0  0  0  0  0  0  0
   -3.6182    3.1168   -6.1511 C   0  0  0  0  0  0  0  0  0  0  0  0
   -2.4230    3.7196   -6.4782 C   0  0  0  0  0  0  0  0  0  0  0  0
   -1.6295    4.3224   -5.5744 N   0  0  0  0  0  0  0  0  0  0  0  0
   -2.0697    4.3079   -4.2988 C   0  0  0  0  0  0  0  0  0  0  0  0
   -3.2445    3.7177   -3.8402 C   0  0  0  0  0  0  0  0  0  0  0  0
   -3.5546    3.7147   -2.4498 N   0  0  0  0  0  0  0  0  0  0  0  0
   -2.5964    3.9307   -1.4479 C   0  0  0  0  0  0  0  0  0  0  0  0
   -1.4075    4.0989   -1.6161 O   0  0  0  0  0  0  0  0  0  0  0  0
   -3.1387    3.8906   -0.0029 C   0  0  0  0  0  0  0  0  0  0  0  0
   -4.6239    3.6360    0.1557 C   0  0  0  0  0  0  0  0  0  0  0  0
   -5.5504    4.7065    0.1724 C   0  0  0  0  0  0  0  0  0  0  0  0
   -6.9394    4.4827    0.2737 C   0  0  0  0  0  0  0  0  0  0  0  0
   -7.3674    3.1632    0.4290 C   0  0  0  0  0  0  0  0  0  0  0  0
   -6.4733    2.0982    0.3688 C   0  0  0  0  0  0  0  0  0  0  0  0
   -5.1117    2.3253    0.2221 C   0  0  0  0  0  0  0  0  0  0  0  0
   -7.0801    0.4859    0.3972 Cl  0  0  0  0  0  0  0  0  0  0  0  0
   -7.8217    5.5752    0.2670 N   0  0  0  0  0  0  0  0  0  0  0  0
   -9.2053    5.4697   -0.2463 C   0  0  3  0  0  0  0  0  0  0  0  0
   -9.2553    5.1224   -1.7461 C   0  0  0  0  0  0  0  0  0  0  0  0
  -10.2638    6.0646   -2.3938 C   0  0  0  0  0  0  0  0  0  0  0  0
  -11.0705    6.6312   -1.2484 C   0  0  0  0  0  0  0  0  0  0  0  0
  -10.1271    6.7140   -0.0395 C   0  0  3  0  0  0  0  0  0  0  0  0
   -9.4430    7.9706    0.0696 O   0  0  0  0  0  0  0  0  0  0  0  0
  -11.5828    7.8378   -1.5748 F   0  0  0  0  0  0  0  0  0  0  0  0
  -12.1122    5.8103   -0.9707 F   0  0  0  0  0  0  0  0  0  0  0  0
   -5.6156    1.7308   -5.4178 H   0  0  0  0  0  0  0  0  0  0  0  0
   -6.1697    3.0447   -4.3871 H   0  0  0  0  0  0  0  0  0  0  0  0
   -5.2273    1.6650   -3.7111 H   0  0  0  0  0  0  0  0  0  0  0  0
   -4.1927    2.6361   -6.9425 H   0  0  0  0  0  0  0  0  0  0  0  0
   -2.0543    3.7380   -7.4987 H   0  0  0  0  0  0  0  0  0  0  0  0
   -1.3918    4.8187   -3.6224 H   0  0  0  0  0  0  0  0  0  0  0  0
   -4.4035    3.2694   -2.1617 H   0  0  0  0  0  0  0  0  0  0  0  0
   -2.8810    4.8563    0.4508 H   0  0  0  0  0  0  0  0  0  0  0  0
   -2.5813    3.1258    0.5477 H   0  0  0  0  0  0  0  0  0  0  0  0
   -5.1762    5.7263    0.0957 H   0  0  0  0  0  0  0  0  0  0  0  0
   -8.4148    2.9265    0.5913 H   0  0  0  0  0  0  0  0  0  0  0  0
   -4.4450    1.4672    0.1625 H   0  0  0  0  0  0  0  0  0  0  0  0
   -7.3726    6.4589    0.0593 H   0  0  0  0  0  0  0  0  0  0  0  0
   -9.7053    4.6508    0.2827 H   0  0  0  0  0  0  0  0  0  0  0  0
   -9.5884    4.0832   -1.8562 H   0  0  0  0  0  0  0  0  0  0  0  0
   -8.2854    5.1882   -2.2506 H   0  0  0  0  0  0  0  0  0  0  0  0
  -10.8995    5.5237   -3.1034 H   0  0  0  0  0  0  0  0  0  0  0  0
   -9.7537    6.8605   -2.9484 H   0  0  0  0  0  0  0  0  0  0  0  0
  -10.7078    6.5869    0.8831 H   0  0  0  0  0  0  0  0  0  0  0  0
   -9.6618    8.5209   -0.7054 H   0  0  0  0  0  0  0  0  0  0  0  0
  1  2  1  0  0  0  0
  1 28  1  0  0  0  0
  1 29  1  0  0  0  0
  1 30  1  0  0  0  0
  2  3  1  0  0  0  0
  2  7  2  0  0  0  0
  3  4  2  0  0  0  0
  3 31  1  0  0  0  0
  4  5  1  0  0  0  0
  4 32  1  0  0  0  0
  5  6  2  0  0  0  0
  6  7  1  0  0  0  0
  6 33  1  0  0  0  0
  7  8  1  0  0  0  0
  8  9  1  0  0  0  0
  8 34  1  0  0  0  0
  9 10  2  0  0  0  0
  9 11  1  0  0  0  0
 11 12  1  0  0  0  0
 11 35  1  0  0  0  0
 11 36  1  0  0  0  0
 12 13  1  0  0  0  0
 12 17  2  0  0  0  0
 13 14  2  0  0  0  0
 13 37  1  0  0  0  0
 14 15  1  0  0  0  0
 14 19  1  0  0  0  0
 15 16  2  0  0  0  0
 15 38  1  0  0  0  0
 16 17  1  0  0  0  0
 16 18  1  0  0  0  0
 17 39  1  0  0  0  0
 19 20  1  0  0  0  0
 19 40  1  0  0  0  0
 20 21  1  0  0  0  0
 20 24  1  0  0  0  0
 20 41  1  0  0  0  0
 21 22  1  0  0  0  0
 21 42  1  0  0  0  0
 21 43  1  0  0  0  0
 22 23  1  0  0  0  0
 22 44  1  0  0  0  0
 22 45  1  0  0  0  0
 23 24  1  0  0  0  0
 23 26  1  0  0  0  0
 23 27  1  0  0  0  0
 24 25  1  0  0  0  0
 24 46  1  0  0  0  0
 25 47  1  0  0  0  0
M  END
$$$$
