
 OpenBabel07202414163D

 34 36  0  0  0  0  0  0  0  0999 V2000
   -1.8616   -0.9422    1.4258 C   0  0  0  0  0  0  0  0  0  0  0  0
   -0.7408   -0.3601    0.6277 C   0  0  0  0  0  0  0  0  0  0  0  0
   -0.6043    1.0388    0.3456 C   0  0  0  0  0  0  0  0  0  0  0  0
    0.5396    1.3313   -0.3606 C   0  0  0  0  0  0  0  0  0  0  0  0
    1.4549   -0.0672   -0.6934 S   0  0  0  0  0  0  0  0  0  0  0  0
    0.3094   -1.0882    0.0865 C   0  0  0  0  0  0  0  0  0  0  0  0
    0.5493   -2.4853    0.1131 C   0  0  0  0  0  0  0  0  0  0  0  0
    1.1994   -3.0953    1.1090 C   0  0  0  0  0  0  0  0  0  0  0  0
    1.6694   -2.4918    2.3969 C   0  0  0  0  0  0  0  0  0  0  0  0
    1.5507   -1.3805    2.8502 O   0  0  0  0  0  0  0  0  0  0  0  0
    2.2583   -3.5525    3.0225 O   0  0  0  0  0  0  0  0  0  0  0  0
    2.1273   -4.6091    2.1954 C   0  0  0  0  0  0  0  0  0  0  0  0
    1.5263   -4.4271    1.0652 N   0  0  0  0  0  0  0  0  0  0  0  0
    2.7027   -5.8588    2.6870 C   0  0  0  0  0  0  0  0  0  0  0  0
    2.6124   -7.0061    1.8950 C   0  0  0  0  0  0  0  0  0  0  0  0
    3.2757   -8.1625    2.2914 C   0  0  0  0  0  0  0  0  0  0  0  0
    4.0189   -8.1710    3.4745 C   0  0  0  0  0  0  0  0  0  0  0  0
    4.0936   -7.0294    4.2762 C   0  0  0  0  0  0  0  0  0  0  0  0
    3.4123   -5.8767    3.8911 C   0  0  0  0  0  0  0  0  0  0  0  0
    4.8165   -6.9148    5.4306 O   0  0  0  0  0  0  0  0  0  0  0  0
    5.5459   -8.0687    5.8311 C   0  0  0  0  0  0  0  0  0  0  0  0
   -2.5614   -0.1670    1.7497 H   0  0  0  0  0  0  0  0  0  0  0  0
   -1.4699   -1.4400    2.3203 H   0  0  0  0  0  0  0  0  0  0  0  0
   -2.4207   -1.6755    0.8387 H   0  0  0  0  0  0  0  0  0  0  0  0
   -1.3126    1.7965    0.6591 H   0  0  0  0  0  0  0  0  0  0  0  0
    0.8827    2.3023   -0.6908 H   0  0  0  0  0  0  0  0  0  0  0  0
    0.2164   -3.0766   -0.7376 H   0  0  0  0  0  0  0  0  0  0  0  0
    2.0649   -6.9934    0.9550 H   0  0  0  0  0  0  0  0  0  0  0  0
    3.2419   -9.0512    1.6664 H   0  0  0  0  0  0  0  0  0  0  0  0
    4.5395   -9.0844    3.7360 H   0  0  0  0  0  0  0  0  0  0  0  0
    3.4711   -4.9870    4.5117 H   0  0  0  0  0  0  0  0  0  0  0  0
    6.2263   -7.7786    6.6369 H   0  0  0  0  0  0  0  0  0  0  0  0
    6.1609   -8.4646    5.0157 H   0  0  0  0  0  0  0  0  0  0  0  0
    4.8655   -8.8334    6.2182 H   0  0  0  0  0  0  0  0  0  0  0  0
  1  2  1  0  0  0  0
  1 22  1  0  0  0  0
  1 23  1  0  0  0  0
  1 24  1  0  0  0  0
  2  3  1  0  0  0  0
  2  6  2  0  0  0  0
  3  4  2  0  0  0  0
  3 25  1  0  0  0  0
  4  5  1  0  0  0  0
  4 26  1  0  0  0  0
  5  6  1  0  0  0  0
  6  7  1  0  0  0  0
  7  8  2  0  0  0  0
  7 27  1  0  0  0  0
  8  9  1  0  0  0  0
  8 13  1  0  0  0  0
  9 10  2  0  0  0  0
  9 11  1  0  0  0  0
 11 12  1  0  0  0  0
 12 13  2  0  0  0  0
 12 14  1  0  0  0  0
 14 15  1  0  0  0  0
 14 19  2  0  0  0  0
 15 16  2  0  0  0  0
 15 28  1  0  0  0  0
 16 17  1  0  0  0  0
 16 29  1  0  0  0  0
 17 18  2  0  0  0  0
 17 30  1  0  0  0  0
 18 19  1  0  0  0  0
 18 20  1  0  0  0  0
 19 31  1  0  0  0  0
 20 21  1  0  0  0  0
 21 32  1  0  0  0  0
 21 33  1  0  0  0  0
 21 34  1  0  0  0  0
M  END
$$$$
