
 OpenBabel07202414163D

 34 35  0  0  1  0  0  0  0  0999 V2000
    1.7607    2.4733    0.6866 C   0  0  0  0  0  0  0  0  0  0  0  0
    1.0677    1.3330   -0.0078 C   0  0  0  0  0  0  0  0  0  0  0  0
    1.8626    0.2373   -0.3948 C   0  0  0  0  0  0  0  0  0  0  0  0
    1.2743   -0.8537   -1.0107 C   0  0  0  0  0  0  0  0  0  0  0  0
   -0.0427   -0.9489   -1.2337 N   0  0  0  0  0  0  0  0  0  0  0  0
   -0.7962    0.1130   -0.8546 C   0  0  0  0  0  0  0  0  0  0  0  0
   -0.3165    1.2850   -0.2614 C   0  0  0  0  0  0  0  0  0  0  0  0
   -1.1659    2.3906    0.0568 N   0  0  0  0  0  0  0  0  0  0  0  0
   -2.4702    2.5376   -0.4030 C   0  0  0  0  0  0  0  0  0  0  0  0
   -3.0322    1.7374   -1.1512 O   0  0  0  0  0  0  0  0  0  0  0  0
   -3.1817    3.8410   -0.0120 C   0  0  3  0  0  0  0  0  0  0  0  0
   -3.3770    4.6581   -1.2980 C   0  0  0  0  0  0  0  0  0  0  0  0
   -4.5157    3.5761    0.6845 C   0  0  0  0  0  0  0  0  0  0  0  0
   -5.5477    2.8633    0.0457 C   0  0  0  0  0  0  0  0  0  0  0  0
   -6.7528    2.5893    0.6963 C   0  0  0  0  0  0  0  0  0  0  0  0
   -6.9554    3.0335    1.9992 C   0  0  0  0  0  0  0  0  0  0  0  0
   -5.9526    3.7583    2.6383 C   0  0  0  0  0  0  0  0  0  0  0  0
   -4.7423    4.0333    1.9922 C   0  0  0  0  0  0  0  0  0  0  0  0
   -6.2075    4.3188    4.2468 Cl  0  0  0  0  0  0  0  0  0  0  0  0
    2.8442    2.4336    0.5168 H   0  0  0  0  0  0  0  0  0  0  0  0
    1.5909    2.4149    1.7661 H   0  0  0  0  0  0  0  0  0  0  0  0
    1.4219    3.4406    0.3079 H   0  0  0  0  0  0  0  0  0  0  0  0
    2.9363    0.2302   -0.2320 H   0  0  0  0  0  0  0  0  0  0  0  0
    1.8626   -1.7022   -1.3465 H   0  0  0  0  0  0  0  0  0  0  0  0
   -1.8529   -0.0571   -1.0386 H   0  0  0  0  0  0  0  0  0  0  0  0
   -0.7472    3.1648    0.5575 H   0  0  0  0  0  0  0  0  0  0  0  0
   -2.5365    4.4214    0.6592 H   0  0  0  0  0  0  0  0  0  0  0  0
   -3.9373    4.0962   -2.0560 H   0  0  0  0  0  0  0  0  0  0  0  0
   -2.4084    4.9080   -1.7455 H   0  0  0  0  0  0  0  0  0  0  0  0
   -3.9207    5.5890   -1.1079 H   0  0  0  0  0  0  0  0  0  0  0  0
   -5.4157    2.4901   -0.9698 H   0  0  0  0  0  0  0  0  0  0  0  0
   -7.5246    2.0174    0.1865 H   0  0  0  0  0  0  0  0  0  0  0  0
   -7.8898    2.8099    2.5060 H   0  0  0  0  0  0  0  0  0  0  0  0
   -3.9805    4.6034    2.5177 H   0  0  0  0  0  0  0  0  0  0  0  0
  1  2  1  0  0  0  0
  1 20  1  0  0  0  0
  1 21  1  0  0  0  0
  1 22  1  0  0  0  0
  2  3  1  0  0  0  0
  2  7  2  0  0  0  0
  3  4  2  0  0  0  0
  3 23  1  0  0  0  0
  4  5  1  0  0  0  0
  4 24  1  0  0  0  0
  5  6  2  0  0  0  0
  6  7  1  0  0  0  0
  6 25  1  0  0  0  0
  7  8  1  0  0  0  0
  8  9  1  0  0  0  0
  8 26  1  0  0  0  0
  9 10  2  0  0  0  0
  9 11  1  0  0  0  0
 11 12  1  0  0  0  0
 11 13  1  0  0  0  0
 11 27  1  0  0  0  0
 12 28  1  0  0  0  0
 12 29  1  0  0  0  0
 12 30  1  0  0  0  0
 13 14  1  0  0  0  0
 13 18  2  0  0  0  0
 14 15  2  0  0  0  0
 14 31  1  0  0  0  0
 15 16  1  0  0  0  0
 15 32  1  0  0  0  0
 16 17  2  0  0  0  0
 16 33  1  0  0  0  0
 17 18  1  0  0  0  0
 17 19  1  0  0  0  0
 18 34  1  0  0  0  0
M  END
$$$$
