
 OpenBabel07202414153D

 49 50  0  0  0  0  0  0  0  0999 V2000
    1.1426   -0.1787   -0.2517 C   0  0  0  0  0  0  0  0  0  0  0  0
    2.9166   -0.0331   -0.2905 S   0  0  0  0  0  0  0  0  0  0  0  0
    3.4632   -1.2608   -0.8194 O   0  0  0  0  0  0  0  0  0  0  0  0
    3.1974    1.2463   -0.9140 O   0  0  0  0  0  0  0  0  0  0  0  0
    3.4090    0.0653    1.3768 N   0  0  0  0  0  0  0  0  0  0  0  0
    2.8853   -1.0864    2.2207 C   0  0  0  0  0  0  0  0  0  0  0  0
    3.1750   -0.9365    3.7247 C   0  0  0  0  0  0  0  0  0  0  0  0
    2.6689   -2.1164    4.5232 C   0  0  0  0  0  0  0  0  0  0  0  0
    3.4550   -3.2733    4.6449 C   0  0  0  0  0  0  0  0  0  0  0  0
    3.0055   -4.3620    5.3927 C   0  0  0  0  0  0  0  0  0  0  0  0
    1.7647   -4.3072    6.0240 C   0  0  0  0  0  0  0  0  0  0  0  0
    0.9717   -3.1675    5.9009 C   0  0  0  0  0  0  0  0  0  0  0  0
    1.4192   -2.0762    5.1534 C   0  0  0  0  0  0  0  0  0  0  0  0
    4.9202    0.1562    1.5016 C   0  0  0  0  0  0  0  0  0  0  0  0
    5.5605    1.3846    0.8285 C   0  0  0  0  0  0  0  0  0  0  0  0
    7.0951    1.3592    0.9783 C   0  0  0  0  0  0  0  0  0  0  0  0
    7.5620    1.7151    2.3870 C   0  0  0  0  0  0  0  0  0  0  0  0
    6.9623    2.9737    2.8208 N   0  0  0  0  0  0  0  0  0  0  0  0
    5.5007    3.0156    2.7829 C   0  0  0  0  0  0  0  0  0  0  0  0
    5.0014    2.7130    1.3721 C   0  0  0  0  0  0  0  0  0  0  0  0
    7.7983    4.0490    3.1413 C   0  0  0  0  0  0  0  0  0  0  0  0
    9.0230    3.9372    3.0903 O   0  0  0  0  0  0  0  0  0  0  0  0
    7.1110    5.3397    3.5578 C   0  0  0  0  0  0  0  0  0  0  0  0
    8.2777    6.6209    3.9500 Cl  0  0  0  0  0  0  0  0  0  0  0  0
    0.7874    0.0782   -1.2535 H   0  0  0  0  0  0  0  0  0  0  0  0
    0.7299    0.5314    0.4649 H   0  0  0  0  0  0  0  0  0  0  0  0
    0.8620   -1.2075   -0.0242 H   0  0  0  0  0  0  0  0  0  0  0  0
    3.3051   -2.0287    1.8443 H   0  0  0  0  0  0  0  0  0  0  0  0
    1.7961   -1.1354    2.1055 H   0  0  0  0  0  0  0  0  0  0  0  0
    2.7385   -0.0058    4.1073 H   0  0  0  0  0  0  0  0  0  0  0  0
    4.2463   -0.8626    3.9313 H   0  0  0  0  0  0  0  0  0  0  0  0
    4.4303   -3.3320    4.1655 H   0  0  0  0  0  0  0  0  0  0  0  0
    3.6244   -5.2505    5.4877 H   0  0  0  0  0  0  0  0  0  0  0  0
    1.4175   -5.1519    6.6135 H   0  0  0  0  0  0  0  0  0  0  0  0
    0.0037   -3.1273    6.3951 H   0  0  0  0  0  0  0  0  0  0  0  0
    0.7893   -1.1929    5.0769 H   0  0  0  0  0  0  0  0  0  0  0  0
    5.3615   -0.7701    1.1096 H   0  0  0  0  0  0  0  0  0  0  0  0
    5.1808    0.1955    2.5578 H   0  0  0  0  0  0  0  0  0  0  0  0
    5.3815    1.3388   -0.2468 H   0  0  0  0  0  0  0  0  0  0  0  0
    7.5191    2.0875    0.2751 H   0  0  0  0  0  0  0  0  0  0  0  0
    7.4907    0.3774    0.6893 H   0  0  0  0  0  0  0  0  0  0  0  0
    8.6541    1.7618    2.4017 H   0  0  0  0  0  0  0  0  0  0  0  0
    7.2672    0.9427    3.1058 H   0  0  0  0  0  0  0  0  0  0  0  0
    5.1115    3.9852    3.1012 H   0  0  0  0  0  0  0  0  0  0  0  0
    5.1300    2.2770    3.5006 H   0  0  0  0  0  0  0  0  0  0  0  0
    5.3230    3.5229    0.7036 H   0  0  0  0  0  0  0  0  0  0  0  0
    3.9061    2.7165    1.3609 H   0  0  0  0  0  0  0  0  0  0  0  0
    6.5103    5.1638    4.4556 H   0  0  0  0  0  0  0  0  0  0  0  0
    6.4851    5.7107    2.7433 H   0  0  0  0  0  0  0  0  0  0  0  0
  1  2  1  0  0  0  0
  1 25  1  0  0  0  0
  1 26  1  0  0  0  0
  1 27  1  0  0  0  0
  2  3  2  0  0  0  0
  2  4  2  0  0  0  0
  2  5  1  0  0  0  0
  5  6  1  0  0  0  0
  5 14  1  0  0  0  0
  6  7  1  0  0  0  0
  6 28  1  0  0  0  0
  6 29  1  0  0  0  0
  7  8  1  0  0  0  0
  7 30  1  0  0  0  0
  7 31  1  0  0  0  0
  8  9  1  0  0  0  0
  8 13  2  0  0  0  0
  9 10  2  0  0  0  0
  9 32  1  0  0  0  0
 10 11  1  0  0  0  0
 10 33  1  0  0  0  0
 11 12  2  0  0  0  0
 11 34  1  0  0  0  0
 12 13  1  0  0  0  0
 12 35  1  0  0  0  0
 13 36  1  0  0  0  0
 14 15  1  0  0  0  0
 14 37  1  0  0  0  0
 14 38  1  0  0  0  0
 15 16  1  0  0  0  0
 15 20  1  0  0  0  0
 15 39  1  0  0  0  0
 16 17  1  0  0  0  0
 16 40  1  0  0  0  0
 16 41  1  0  0  0  0
 17 18  1  0  0  0  0
 17 42  1  0  0  0  0
 17 43  1  0  0  0  0
 18 19  1  0  0  0  0
 18 21  1  0  0  0  0
 19 20  1  0  0  0  0
 19 44  1  0  0  0  0
 19 45  1  0  0  0  0
 20 46  1  0  0  0  0
 20 47  1  0  0  0  0
 21 22  2  0  0  0  0
 21 23  1  0  0  0  0
 23 24  1  0  0  0  0
 23 48  1  0  0  0  0
 23 49  1  0  0  0  0
M  END
$$$$
