
 OpenBabel07202414173D

 39 42  0  0  1  0  0  0  0  0999 V2000
   10.8004   -1.9448   -0.5477 Cl  0  0  0  0  0  0  0  0  0  0  0  0
    9.3856   -2.8748   -0.8374 C   0  0  0  0  0  0  0  0  0  0  0  0
    9.4326   -3.9669   -1.6961 C   0  0  0  0  0  0  0  0  0  0  0  0
    8.2809   -4.7133   -1.9300 C   0  0  0  0  0  0  0  0  0  0  0  0
    8.3858   -6.0602   -3.0080 Cl  0  0  0  0  0  0  0  0  0  0  0  0
    7.0697   -4.3810   -1.2961 C   0  0  0  0  0  0  0  0  0  0  0  0
    7.0333   -3.2909   -0.4299 C   0  0  0  0  0  0  0  0  0  0  0  0
    8.1936   -2.5301   -0.1991 C   0  0  0  0  0  0  0  0  0  0  0  0
    5.7509   -2.8958    0.2518 C   0  0  3  0  0  0  0  0  0  0  0  0
    5.6026   -3.3102    1.7027 C   0  0  0  0  0  0  0  0  0  0  0  0
    4.7368   -2.7318    2.3769 O   0  0  0  0  0  0  0  0  0  0  0  0
    6.3873   -4.3591    2.1973 N   0  0  0  0  0  0  0  0  0  0  0  0
    6.1839   -4.8080    3.5357 C   0  0  0  0  0  0  0  0  0  0  0  0
    4.8833   -4.8736    4.0478 C   0  0  0  0  0  0  0  0  0  0  0  0
    4.5736   -4.9871    5.3544 N   0  0  0  0  0  0  0  0  0  0  0  0
    5.6194   -4.9675    6.1986 C   0  0  0  0  0  0  0  0  0  0  0  0
    6.9548   -5.0107    5.8020 C   0  0  0  0  0  0  0  0  0  0  0  0
    7.9713   -5.0289    6.7644 C   0  0  0  0  0  0  0  0  0  0  0  0
    9.2630   -5.3862    6.4035 C   0  0  0  0  0  0  0  0  0  0  0  0
    9.5648   -5.6096    5.0635 C   0  0  0  0  0  0  0  0  0  0  0  0
    8.5998   -5.3702    4.0741 C   0  0  0  0  0  0  0  0  0  0  0  0
    7.2579   -5.0683    4.4231 C   0  0  0  0  0  0  0  0  0  0  0  0
    4.5570   -3.4352   -0.5340 C   0  0  0  0  0  0  0  0  0  0  0  0
    4.7901   -4.9057   -0.8218 C   0  0  0  0  0  0  0  0  0  0  0  0
    5.9667   -5.1297   -1.6035 O   0  0  0  0  0  0  0  0  0  0  0  0
   10.3697   -4.2336   -2.1864 H   0  0  0  0  0  0  0  0  0  0  0  0
    8.1648   -1.6634    0.4564 H   0  0  0  0  0  0  0  0  0  0  0  0
    5.6861   -1.7978    0.2437 H   0  0  0  0  0  0  0  0  0  0  0  0
    7.3168   -4.4564    1.8087 H   0  0  0  0  0  0  0  0  0  0  0  0
    4.0181   -4.8142    3.3939 H   0  0  0  0  0  0  0  0  0  0  0  0
    5.3422   -4.9752    7.2483 H   0  0  0  0  0  0  0  0  0  0  0  0
    7.7488   -4.7996    7.8045 H   0  0  0  0  0  0  0  0  0  0  0  0
   10.0171   -5.5218    7.1743 H   0  0  0  0  0  0  0  0  0  0  0  0
   10.5572   -5.9653    4.7939 H   0  0  0  0  0  0  0  0  0  0  0  0
    8.8913   -5.5055    3.0354 H   0  0  0  0  0  0  0  0  0  0  0  0
    4.4671   -2.8863   -1.4801 H   0  0  0  0  0  0  0  0  0  0  0  0
    3.6174   -3.2980    0.0152 H   0  0  0  0  0  0  0  0  0  0  0  0
    3.9403   -5.3021   -1.3877 H   0  0  0  0  0  0  0  0  0  0  0  0
    4.8595   -5.4973    0.0987 H   0  0  0  0  0  0  0  0  0  0  0  0
  1  2  1  0  0  0  0
  2  3  1  0  0  0  0
  2  8  2  0  0  0  0
  3  4  2  0  0  0  0
  3 26  1  0  0  0  0
  4  5  1  0  0  0  0
  4  6  1  0  0  0  0
  6  7  2  0  0  0  0
  6 25  1  0  0  0  0
  7  8  1  0  0  0  0
  7  9  1  0  0  0  0
  8 27  1  0  0  0  0
  9 10  1  0  0  0  0
  9 23  1  0  0  0  0
  9 28  1  0  0  0  0
 10 11  2  0  0  0  0
 10 12  1  0  0  0  0
 12 13  1  0  0  0  0
 12 29  1  0  0  0  0
 13 14  1  0  0  0  0
 13 22  2  0  0  0  0
 14 15  2  0  0  0  0
 14 30  1  0  0  0  0
 15 16  1  0  0  0  0
 16 17  2  0  0  0  0
 16 31  1  0  0  0  0
 17 18  1  0  0  0  0
 17 22  1  0  0  0  0
 18 19  2  0  0  0  0
 18 32  1  0  0  0  0
 19 20  1  0  0  0  0
 19 33  1  0  0  0  0
 20 21  2  0  0  0  0
 20 34  1  0  0  0  0
 21 22  1  0  0  0  0
 21 35  1  0  0  0  0
 23 24  1  0  0  0  0
 23 36  1  0  0  0  0
 23 37  1  0  0  0  0
 24 25  1  0  0  0  0
 24 38  1  0  0  0  0
 24 39  1  0  0  0  0
M  END
$$$$
