
 OpenBabel07202414163D

 57 61  0  0  0  0  0  0  0  0999 V2000
   -2.1203   -0.2627    0.1566 Cl  0  0  0  0  0  0  0  0  0  0  0  0
   -0.4052   -0.1193    0.0865 C   0  0  0  0  0  0  0  0  0  0  0  0
    0.1870    1.1470    0.1101 C   0  0  0  0  0  0  0  0  0  0  0  0
    1.5745    1.2684   -0.0182 C   0  0  0  0  0  0  0  0  0  0  0  0
    2.2609    2.6102   -0.0942 C   0  0  0  0  0  0  0  0  0  0  0  0
    2.6819    3.1863    1.2404 C   0  0  0  0  0  0  0  0  0  0  0  0
    2.1973    4.2502    1.6442 O   0  0  0  0  0  0  0  0  0  0  0  0
    3.6921    2.5095    1.8919 N   0  0  0  0  0  0  0  0  0  0  0  0
    4.1850    2.9748    3.1396 C   0  0  0  0  0  0  0  0  0  0  0  0
    3.3097    3.2434    4.1910 C   0  0  0  0  0  0  0  0  0  0  0  0
    3.6957    3.6321    5.4289 N   0  0  0  0  0  0  0  0  0  0  0  0
    5.0246    3.7894    5.6121 C   0  0  0  0  0  0  0  0  0  0  0  0
    5.9981    3.5740    4.6315 C   0  0  0  0  0  0  0  0  0  0  0  0
    7.3656    3.7817    4.8853 C   0  0  0  0  0  0  0  0  0  0  0  0
    8.3129    3.5953    3.8791 C   0  0  0  0  0  0  0  0  0  0  0  0
    7.9065    3.2136    2.6079 C   0  0  0  0  0  0  0  0  0  0  0  0
    6.5530    2.9974    2.3445 C   0  0  0  0  0  0  0  0  0  0  0  0
    5.5699    3.1532    3.3508 C   0  0  0  0  0  0  0  0  0  0  0  0
    2.3370    0.0984   -0.1240 C   0  0  0  0  0  0  0  0  0  0  0  0
    1.7607   -1.1819   -0.1086 C   0  0  0  0  0  0  0  0  0  0  0  0
    2.5375   -2.3464   -0.2462 N   0  0  0  0  0  0  0  0  0  0  0  0
    3.8945   -2.5098    0.1161 C   0  0  0  0  0  0  0  0  0  0  0  0
    4.4554   -1.7789    1.1655 C   0  0  0  0  0  0  0  0  0  0  0  0
    5.8200   -1.8087    1.4018 C   0  0  0  0  0  0  0  0  0  0  0  0
    6.6368   -2.6696    0.6679 C   0  0  0  0  0  0  0  0  0  0  0  0
    7.9926   -2.7856    0.8929 O   0  0  0  0  0  0  0  0  0  0  0  0
    8.4500   -2.7194    2.1974 C   0  0  0  0  0  0  0  0  0  0  0  0
    9.7541   -2.2764    2.4470 C   0  0  0  0  0  0  0  0  0  0  0  0
   10.8051   -1.7729    1.1707 Cl  0  0  0  0  0  0  0  0  0  0  0  0
   10.2311   -2.2151    3.7592 C   0  0  0  0  0  0  0  0  0  0  0  0
    9.4057   -2.5683    4.8297 C   0  0  0  0  0  0  0  0  0  0  0  0
    8.1062   -3.0040    4.5901 C   0  0  0  0  0  0  0  0  0  0  0  0
    7.6537   -3.1192    3.2840 C   0  0  0  0  0  0  0  0  0  0  0  0
    6.0865   -3.4540   -0.3524 C   0  0  0  0  0  0  0  0  0  0  0  0
    4.7152   -3.3732   -0.6291 C   0  0  0  0  0  0  0  0  0  0  0  0
    0.3719   -1.2781   -0.0250 C   0  0  0  0  0  0  0  0  0  0  0  0
   -0.4412    2.0321    0.1908 H   0  0  0  0  0  0  0  0  0  0  0  0
    1.5907    3.3348   -0.5788 H   0  0  0  0  0  0  0  0  0  0  0  0
    3.1442    2.5477   -0.7427 H   0  0  0  0  0  0  0  0  0  0  0  0
    4.3287    1.9859    1.3089 H   0  0  0  0  0  0  0  0  0  0  0  0
    2.2343    3.1097    4.0809 H   0  0  0  0  0  0  0  0  0  0  0  0
    5.2984    4.1133    6.6138 H   0  0  0  0  0  0  0  0  0  0  0  0
    7.7003    4.1005    5.8704 H   0  0  0  0  0  0  0  0  0  0  0  0
    9.3675    3.7614    4.0851 H   0  0  0  0  0  0  0  0  0  0  0  0
    8.6377    3.0921    1.8128 H   0  0  0  0  0  0  0  0  0  0  0  0
    6.2773    2.7409    1.3264 H   0  0  0  0  0  0  0  0  0  0  0  0
    3.4132    0.1934   -0.2604 H   0  0  0  0  0  0  0  0  0  0  0  0
    2.0300   -3.2202   -0.2492 H   0  0  0  0  0  0  0  0  0  0  0  0
    3.8287   -1.1658    1.8115 H   0  0  0  0  0  0  0  0  0  0  0  0
    6.2159   -1.1937    2.2062 H   0  0  0  0  0  0  0  0  0  0  0  0
   11.2504   -1.8892    3.9638 H   0  0  0  0  0  0  0  0  0  0  0  0
    9.7709   -2.5148    5.8513 H   0  0  0  0  0  0  0  0  0  0  0  0
    7.4419   -3.2583    5.4109 H   0  0  0  0  0  0  0  0  0  0  0  0
    6.6451   -3.4936    3.1302 H   0  0  0  0  0  0  0  0  0  0  0  0
    6.7223   -4.1145   -0.9365 H   0  0  0  0  0  0  0  0  0  0  0  0
    4.3006   -3.9428   -1.4535 H   0  0  0  0  0  0  0  0  0  0  0  0
   -0.1145   -2.2483   -0.0466 H   0  0  0  0  0  0  0  0  0  0  0  0
  1  2  1  0  0  0  0
  2  3  2  0  0  0  0
  2 36  1  0  0  0  0
  3  4  1  0  0  0  0
  3 37  1  0  0  0  0
  4  5  1  0  0  0  0
  4 19  2  0  0  0  0
  5  6  1  0  0  0  0
  5 38  1  0  0  0  0
  5 39  1  0  0  0  0
  6  7  2  0  0  0  0
  6  8  1  0  0  0  0
  8  9  1  0  0  0  0
  8 40  1  0  0  0  0
  9 10  2  0  0  0  0
  9 18  1  0  0  0  0
 10 11  1  0  0  0  0
 10 41  1  0  0  0  0
 11 12  2  0  0  0  0
 12 13  1  0  0  0  0
 12 42  1  0  0  0  0
 13 14  2  0  0  0  0
 13 18  1  0  0  0  0
 14 15  1  0  0  0  0
 14 43  1  0  0  0  0
 15 16  2  0  0  0  0
 15 44  1  0  0  0  0
 16 17  1  0  0  0  0
 16 45  1  0  0  0  0
 17 18  2  0  0  0  0
 17 46  1  0  0  0  0
 19 20  1  0  0  0  0
 19 47  1  0  0  0  0
 20 21  1  0  0  0  0
 20 36  2  0  0  0  0
 21 22  1  0  0  0  0
 21 48  1  0  0  0  0
 22 23  2  0  0  0  0
 22 35  1  0  0  0  0
 23 24  1  0  0  0  0
 23 49  1  0  0  0  0
 24 25  2  0  0  0  0
 24 50  1  0  0  0  0
 25 26  1  0  0  0  0
 25 34  1  0  0  0  0
 26 27  1  0  0  0  0
 27 28  2  0  0  0  0
 27 33  1  0  0  0  0
 28 29  1  0  0  0  0
 28 30  1  0  0  0  0
 30 31  2  0  0  0  0
 30 51  1  0  0  0  0
 31 32  1  0  0  0  0
 31 52  1  0  0  0  0
 32 33  2  0  0  0  0
 32 53  1  0  0  0  0
 33 54  1  0  0  0  0
 34 35  2  0  0  0  0
 34 55  1  0  0  0  0
 35 56  1  0  0  0  0
 36 57  1  0  0  0  0
M  END
$$$$
