
 OpenBabel07202414153D

 61 62  0  0  1  0  0  0  0  0999 V2000
    3.7562    8.6258    7.5959 C   0  0  0  0  0  0  0  0  0  0  0  0
    5.2985    7.6975    7.3875 S   0  0  0  0  0  0  0  0  0  0  0  0
    5.2994    7.5330    5.5696 C   0  0  0  0  0  0  0  0  0  0  0  0
    6.5207    6.7303    5.1115 C   0  0  0  0  0  0  0  0  0  0  0  0
    6.5789    6.6132    3.5817 C   0  0  0  0  0  0  0  0  0  0  0  0
    7.7259    5.8316    3.1237 N   0  0  0  0  0  0  0  0  0  0  0  0
    7.6562    4.4575    2.9821 C   0  0  0  0  0  0  0  0  0  0  0  0
    6.5881    3.8603    3.1352 O   0  0  0  0  0  0  0  0  0  0  0  0
    8.9789    3.6666    2.7397 C   0  0  3  0  0  0  0  0  0  0  0  0
    9.6226    3.8952    1.3994 N   0  0  0  0  0  0  0  0  0  0  0  0
   10.6138    4.8099    1.0366 C   0  0  0  0  0  0  0  0  0  0  0  0
   11.0358    4.9312   -0.1167 O   0  0  0  0  0  0  0  0  0  0  0  0
   11.2380    5.6702    2.0743 C   0  0  0  0  0  0  0  0  0  0  0  0
   12.5183    6.0388    1.9248 C   0  0  0  0  0  0  0  0  0  0  0  0
    9.2652    2.9410    0.3752 C   0  0  0  0  0  0  0  0  0  0  0  0
   10.2623    2.1494   -0.2032 C   0  0  0  0  0  0  0  0  0  0  0  0
    9.9891    1.3148   -1.2947 C   0  0  0  0  0  0  0  0  0  0  0  0
    8.7126    1.2557   -1.8724 C   0  0  0  0  0  0  0  0  0  0  0  0
    8.4336    0.4295   -3.1479 C   0  0  0  0  0  0  0  0  0  0  0  0
    9.6677   -0.3595   -3.6529 C   0  0  0  0  0  0  0  0  0  0  0  0
    7.3114   -0.5978   -2.8939 C   0  0  0  0  0  0  0  0  0  0  0  0
    8.0000    1.3557   -4.3068 C   0  0  0  0  0  0  0  0  0  0  0  0
    7.7032    2.0200   -1.2484 C   0  0  0  0  0  0  0  0  0  0  0  0
    7.9670    2.8381   -0.1271 C   0  0  0  0  0  0  0  0  0  0  0  0
    9.9329    3.6569    3.9407 C   0  0  0  0  0  0  0  0  0  0  0  0
   11.1488    2.9651    3.8952 C   0  0  0  0  0  0  0  0  0  0  0  0
   12.0213    2.9991    4.9847 C   0  0  0  0  0  0  0  0  0  0  0  0
   11.6462    3.7157    6.1053 C   0  0  0  0  0  0  0  0  0  0  0  0
   10.4723    4.3656    6.2081 N   0  0  0  0  0  0  0  0  0  0  0  0
    9.6382    4.3016    5.1431 C   0  0  0  0  0  0  0  0  0  0  0  0
    3.6019    8.8346    8.6588 H   0  0  0  0  0  0  0  0  0  0  0  0
    2.9050    8.0437    7.2331 H   0  0  0  0  0  0  0  0  0  0  0  0
    3.8067    9.5786    7.0626 H   0  0  0  0  0  0  0  0  0  0  0  0
    5.3169    8.5353    5.1301 H   0  0  0  0  0  0  0  0  0  0  0  0
    4.3781    7.0289    5.2608 H   0  0  0  0  0  0  0  0  0  0  0  0
    6.4897    5.7272    5.5558 H   0  0  0  0  0  0  0  0  0  0  0  0
    7.4425    7.2085    5.4681 H   0  0  0  0  0  0  0  0  0  0  0  0
    6.6710    7.6071    3.1323 H   0  0  0  0  0  0  0  0  0  0  0  0
    5.6579    6.1532    3.2078 H   0  0  0  0  0  0  0  0  0  0  0  0
    8.6148    6.3051    3.0596 H   0  0  0  0  0  0  0  0  0  0  0  0
    8.6367    2.6186    2.7147 H   0  0  0  0  0  0  0  0  0  0  0  0
   10.6794    6.0043    2.9292 H   0  0  0  0  0  0  0  0  0  0  0  0
   13.1094    5.7166    1.0671 H   0  0  0  0  0  0  0  0  0  0  0  0
   13.0099    6.6692    2.6570 H   0  0  0  0  0  0  0  0  0  0  0  0
   11.2817    2.1908    0.1721 H   0  0  0  0  0  0  0  0  0  0  0  0
   10.8220    0.7439   -1.6945 H   0  0  0  0  0  0  0  0  0  0  0  0
   10.0214   -1.0772   -2.9034 H   0  0  0  0  0  0  0  0  0  0  0  0
   10.4992    0.3104   -3.9038 H   0  0  0  0  0  0  0  0  0  0  0  0
    9.4352   -0.9288   -4.5609 H   0  0  0  0  0  0  0  0  0  0  0  0
    7.5755   -1.2798   -2.0782 H   0  0  0  0  0  0  0  0  0  0  0  0
    7.1269   -1.2067   -3.7882 H   0  0  0  0  0  0  0  0  0  0  0  0
    6.3625   -0.1168   -2.6344 H   0  0  0  0  0  0  0  0  0  0  0  0
    8.7843    2.0812   -4.5521 H   0  0  0  0  0  0  0  0  0  0  0  0
    7.0889    1.9159   -4.0725 H   0  0  0  0  0  0  0  0  0  0  0  0
    7.7955    0.7753   -5.2161 H   0  0  0  0  0  0  0  0  0  0  0  0
    6.6915    2.0188   -1.6506 H   0  0  0  0  0  0  0  0  0  0  0  0
    7.1603    3.4432    0.2777 H   0  0  0  0  0  0  0  0  0  0  0  0
   11.4385    2.4027    3.0076 H   0  0  0  0  0  0  0  0  0  0  0  0
   12.9739    2.4829    4.9570 H   0  0  0  0  0  0  0  0  0  0  0  0
   12.2903    3.7829    6.9778 H   0  0  0  0  0  0  0  0  0  0  0  0
    8.7024    4.8166    5.3222 H   0  0  0  0  0  0  0  0  0  0  0  0
  1  2  1  0  0  0  0
  1 31  1  0  0  0  0
  1 32  1  0  0  0  0
  1 33  1  0  0  0  0
  2  3  1  0  0  0  0
  3  4  1  0  0  0  0
  3 34  1  0  0  0  0
  3 35  1  0  0  0  0
  4  5  1  0  0  0  0
  4 36  1  0  0  0  0
  4 37  1  0  0  0  0
  5  6  1  0  0  0  0
  5 38  1  0  0  0  0
  5 39  1  0  0  0  0
  6  7  1  0  0  0  0
  6 40  1  0  0  0  0
  7  8  2  0  0  0  0
  7  9  1  0  0  0  0
  9 10  1  0  0  0  0
  9 25  1  0  0  0  0
  9 41  1  0  0  0  0
 10 11  1  0  0  0  0
 10 15  1  0  0  0  0
 11 12  2  0  0  0  0
 11 13  1  0  0  0  0
 13 14  2  0  0  0  0
 13 42  1  0  0  0  0
 14 43  1  0  0  0  0
 14 44  1  0  0  0  0
 15 16  1  0  0  0  0
 15 24  2  0  0  0  0
 16 17  2  0  0  0  0
 16 45  1  0  0  0  0
 17 18  1  0  0  0  0
 17 46  1  0  0  0  0
 18 19  1  0  0  0  0
 18 23  2  0  0  0  0
 19 20  1  0  0  0  0
 19 21  1  0  0  0  0
 19 22  1  0  0  0  0
 20 47  1  0  0  0  0
 20 48  1  0  0  0  0
 20 49  1  0  0  0  0
 21 50  1  0  0  0  0
 21 51  1  0  0  0  0
 21 52  1  0  0  0  0
 22 53  1  0  0  0  0
 22 54  1  0  0  0  0
 22 55  1  0  0  0  0
 23 24  1  0  0  0  0
 23 56  1  0  0  0  0
 24 57  1  0  0  0  0
 25 26  1  0  0  0  0
 25 30  2  0  0  0  0
 26 27  2  0  0  0  0
 26 58  1  0  0  0  0
 27 28  1  0  0  0  0
 27 59  1  0  0  0  0
 28 29  2  0  0  0  0
 28 60  1  0  0  0  0
 29 30  1  0  0  0  0
 30 61  1  0  0  0  0
M  END
$$$$
