
 OpenBabel07202414153D

 60 63  0  0  1  0  0  0  0  0999 V2000
    5.4526    0.1886    1.1117 C   0  0  0  0  0  0  0  0  0  0  0  0
    4.6928    1.7901    1.0780 S   0  0  0  0  0  0  0  0  0  0  0  0
    3.3240    1.6533    1.5431 O   0  0  0  0  0  0  0  0  0  0  0  0
    5.5981    2.7354    1.7050 O   0  0  0  0  0  0  0  0  0  0  0  0
    4.6354    2.1599   -0.6559 C   0  0  0  0  0  0  0  0  0  0  0  0
    3.4859    1.8765   -1.3936 C   0  0  0  0  0  0  0  0  0  0  0  0
    3.4516    2.1892   -2.7583 C   0  0  0  0  0  0  0  0  0  0  0  0
    4.5455    2.8086   -3.3866 C   0  0  0  0  0  0  0  0  0  0  0  0
    4.4541    3.2361   -4.7457 N   0  0  0  0  0  0  0  0  0  0  0  0
    5.4445    2.7796   -5.7587 C   0  0  3  0  0  0  0  0  0  0  0  0
    6.6881    3.7042   -5.9728 C   0  0  0  0  0  0  0  0  0  0  0  0
    7.2985    4.2492   -5.0562 O   0  0  0  0  0  0  0  0  0  0  0  0
    7.1334    3.7944   -7.2898 N   0  0  0  0  0  0  0  0  0  0  0  0
    8.4155    4.4201   -7.5896 C   0  0  0  0  0  0  0  0  0  0  0  0
    8.5967    4.7256   -9.0792 C   0  0  0  0  0  0  0  0  0  0  0  0
    9.9435    5.3441   -9.3773 C   0  0  0  0  0  0  0  0  0  0  0  0
   10.1109    6.7374   -9.3506 C   0  0  0  0  0  0  0  0  0  0  0  0
   11.3621    7.3130   -9.6027 C   0  0  0  0  0  0  0  0  0  0  0  0
   12.4584    6.5008   -9.8818 C   0  0  0  0  0  0  0  0  0  0  0  0
   12.2958    5.1224   -9.9082 C   0  0  0  0  0  0  0  0  0  0  0  0
   13.3497    4.3398  -10.1760 F   0  0  0  0  0  0  0  0  0  0  0  0
   11.0552    4.5378   -9.6585 C   0  0  0  0  0  0  0  0  0  0  0  0
    5.8498    1.3077   -5.6919 C   0  0  0  0  0  0  0  0  0  0  0  0
    5.0988    0.3236   -6.3547 C   0  0  0  0  0  0  0  0  0  0  0  0
    5.5787   -0.9829   -6.4365 C   0  0  0  0  0  0  0  0  0  0  0  0
    6.7874   -1.2762   -5.8310 C   0  0  0  0  0  0  0  0  0  0  0  0
    7.5125   -0.3741   -5.1396 N   0  0  0  0  0  0  0  0  0  0  0  0
    7.0287    0.8893   -5.0799 C   0  0  0  0  0  0  0  0  0  0  0  0
    3.4127    4.0709   -5.2263 C   0  0  0  0  0  0  0  0  0  0  0  0
    3.3100    4.3070   -6.4347 O   0  0  0  0  0  0  0  0  0  0  0  0
    2.4276    4.6712   -4.3134 C   0  0  0  0  0  0  0  0  0  0  0  0
    1.1737    5.1019   -4.6989 C   0  0  0  0  0  0  0  0  0  0  0  0
    0.5143    5.5723   -3.6066 O   0  0  0  0  0  0  0  0  0  0  0  0
    1.4201    5.4375   -2.6008 C   0  0  0  0  0  0  0  0  0  0  0  0
    2.5737    4.9323   -2.9590 N   0  0  0  0  0  0  0  0  0  0  0  0
    5.6922    3.0685   -2.6277 C   0  0  0  0  0  0  0  0  0  0  0  0
    5.7360    2.7614   -1.2635 C   0  0  0  0  0  0  0  0  0  0  0  0
    5.5400   -0.1251    2.1521 H   0  0  0  0  0  0  0  0  0  0  0  0
    6.4430    0.2587    0.6577 H   0  0  0  0  0  0  0  0  0  0  0  0
    4.8212   -0.5103    0.5603 H   0  0  0  0  0  0  0  0  0  0  0  0
    2.6096    1.4432   -0.9172 H   0  0  0  0  0  0  0  0  0  0  0  0
    2.5397    1.9778   -3.3110 H   0  0  0  0  0  0  0  0  0  0  0  0
    4.9301    2.8439   -6.7267 H   0  0  0  0  0  0  0  0  0  0  0  0
    6.7480    3.1515   -7.9712 H   0  0  0  0  0  0  0  0  0  0  0  0
    9.1947    3.7329   -7.2405 H   0  0  0  0  0  0  0  0  0  0  0  0
    8.5036    5.3384   -6.9962 H   0  0  0  0  0  0  0  0  0  0  0  0
    7.8007    5.3973   -9.4251 H   0  0  0  0  0  0  0  0  0  0  0  0
    8.4814    3.8073   -9.6696 H   0  0  0  0  0  0  0  0  0  0  0  0
    9.2673    7.3888   -9.1328 H   0  0  0  0  0  0  0  0  0  0  0  0
   11.4781    8.3934   -9.5791 H   0  0  0  0  0  0  0  0  0  0  0  0
   13.4361    6.9329  -10.0766 H   0  0  0  0  0  0  0  0  0  0  0  0
   10.9751    3.4560   -9.6875 H   0  0  0  0  0  0  0  0  0  0  0  0
    4.1615    0.5745   -6.8462 H   0  0  0  0  0  0  0  0  0  0  0  0
    5.0356   -1.7485   -6.9788 H   0  0  0  0  0  0  0  0  0  0  0  0
    7.2219   -2.2704   -5.8950 H   0  0  0  0  0  0  0  0  0  0  0  0
    7.6666    1.5800   -4.5313 H   0  0  0  0  0  0  0  0  0  0  0  0
    0.6340    5.1212   -5.6352 H   0  0  0  0  0  0  0  0  0  0  0  0
    1.0991    5.7486   -1.6149 H   0  0  0  0  0  0  0  0  0  0  0  0
    6.5422    3.5934   -3.0446 H   0  0  0  0  0  0  0  0  0  0  0  0
    6.6176    3.0289   -0.6847 H   0  0  0  0  0  0  0  0  0  0  0  0
  1  2  1  0  0  0  0
  1 38  1  0  0  0  0
  1 39  1  0  0  0  0
  1 40  1  0  0  0  0
  2  3  2  0  0  0  0
  2  4  2  0  0  0  0
  2  5  1  0  0  0  0
  5  6  1  0  0  0  0
  5 37  2  0  0  0  0
  6  7  2  0  0  0  0
  6 41  1  0  0  0  0
  7  8  1  0  0  0  0
  7 42  1  0  0  0  0
  8  9  1  0  0  0  0
  8 36  2  0  0  0  0
  9 10  1  0  0  0  0
  9 29  1  0  0  0  0
 10 11  1  0  0  0  0
 10 23  1  0  0  0  0
 10 43  1  0  0  0  0
 11 12  2  0  0  0  0
 11 13  1  0  0  0  0
 13 14  1  0  0  0  0
 13 44  1  0  0  0  0
 14 15  1  0  0  0  0
 14 45  1  0  0  0  0
 14 46  1  0  0  0  0
 15 16  1  0  0  0  0
 15 47  1  0  0  0  0
 15 48  1  0  0  0  0
 16 17  1  0  0  0  0
 16 22  2  0  0  0  0
 17 18  2  0  0  0  0
 17 49  1  0  0  0  0
 18 19  1  0  0  0  0
 18 50  1  0  0  0  0
 19 20  2  0  0  0  0
 19 51  1  0  0  0  0
 20 21  1  0  0  0  0
 20 22  1  0  0  0  0
 22 52  1  0  0  0  0
 23 24  1  0  0  0  0
 23 28  2  0  0  0  0
 24 25  2  0  0  0  0
 24 53  1  0  0  0  0
 25 26  1  0  0  0  0
 25 54  1  0  0  0  0
 26 27  2  0  0  0  0
 26 55  1  0  0  0  0
 27 28  1  0  0  0  0
 28 56  1  0  0  0  0
 29 30  2  0  0  0  0
 29 31  1  0  0  0  0
 31 32  2  0  0  0  0
 31 35  1  0  0  0  0
 32 33  1  0  0  0  0
 32 57  1  0  0  0  0
 33 34  1  0  0  0  0
 34 35  2  0  0  0  0
 34 58  1  0  0  0  0
 36 37  1  0  0  0  0
 36 59  1  0  0  0  0
 37 60  1  0  0  0  0
M  END
$$$$
