
 OpenBabel07202414163D

 37 39  0  0  0  0  0  0  0  0999 V2000
   -0.9367   -0.0794    2.5693 C   0  0  0  0  0  0  0  0  0  0  0  0
   -0.8324   -0.3358    1.0904 C   0  0  0  0  0  0  0  0  0  0  0  0
   -0.1486   -1.4930    0.6769 C   0  0  0  0  0  0  0  0  0  0  0  0
   -0.0489   -1.7744   -0.6748 C   0  0  0  0  0  0  0  0  0  0  0  0
   -0.5951   -1.0079   -1.6323 N   0  0  0  0  0  0  0  0  0  0  0  0
   -1.2477    0.1102   -1.2186 C   0  0  0  0  0  0  0  0  0  0  0  0
   -1.3911    0.5114    0.1121 C   0  0  0  0  0  0  0  0  0  0  0  0
   -2.0657    1.7035    0.4904 N   0  0  0  0  0  0  0  0  0  0  0  0
   -2.4402    2.7458   -0.3526 C   0  0  0  0  0  0  0  0  0  0  0  0
   -2.2420    2.7872   -1.5649 O   0  0  0  0  0  0  0  0  0  0  0  0
   -3.2285    3.8786    0.3380 C   0  0  0  0  0  0  0  0  0  0  0  0
   -4.6464    3.6774    0.0664 N   0  0  0  0  0  0  0  0  0  0  0  0
   -5.4623    4.5663   -0.6957 C   0  0  0  0  0  0  0  0  0  0  0  0
   -5.0078    5.7962   -1.1923 C   0  0  0  0  0  0  0  0  0  0  0  0
   -5.8918    6.6776   -1.8370 C   0  0  0  0  0  0  0  0  0  0  0  0
   -7.2264    6.3395   -2.0281 C   0  0  0  0  0  0  0  0  0  0  0  0
   -7.6919    5.1198   -1.5530 C   0  0  0  0  0  0  0  0  0  0  0  0
   -6.8227    4.2479   -0.8877 C   0  0  0  0  0  0  0  0  0  0  0  0
   -7.4214    3.1125   -0.4047 O   0  0  0  0  0  0  0  0  0  0  0  0
   -6.5066    2.1105   -0.0167 C   0  0  0  0  0  0  0  0  0  0  0  0
   -5.2327    2.5678    0.6687 C   0  0  0  0  0  0  0  0  0  0  0  0
   -4.6988    1.9348    1.5778 O   0  0  0  0  0  0  0  0  0  0  0  0
   -5.3252    8.2159   -2.3649 Cl  0  0  0  0  0  0  0  0  0  0  0  0
   -0.1907   -0.6618    3.1238 H   0  0  0  0  0  0  0  0  0  0  0  0
   -1.9275   -0.3688    2.9329 H   0  0  0  0  0  0  0  0  0  0  0  0
   -0.7482    0.9719    2.8053 H   0  0  0  0  0  0  0  0  0  0  0  0
    0.3143   -2.1639    1.3929 H   0  0  0  0  0  0  0  0  0  0  0  0
    0.4879   -2.6499   -1.0295 H   0  0  0  0  0  0  0  0  0  0  0  0
   -1.6928    0.6611   -2.0403 H   0  0  0  0  0  0  0  0  0  0  0  0
   -2.3449    1.7773    1.4634 H   0  0  0  0  0  0  0  0  0  0  0  0
   -2.8406    4.8192   -0.0527 H   0  0  0  0  0  0  0  0  0  0  0  0
   -3.0511    3.8731    1.4182 H   0  0  0  0  0  0  0  0  0  0  0  0
   -3.9835    6.1275   -1.0632 H   0  0  0  0  0  0  0  0  0  0  0  0
   -7.9057    7.0264   -2.5249 H   0  0  0  0  0  0  0  0  0  0  0  0
   -8.7372    4.8487   -1.6847 H   0  0  0  0  0  0  0  0  0  0  0  0
   -6.2133    1.5297   -0.9020 H   0  0  0  0  0  0  0  0  0  0  0  0
   -7.0311    1.4320    0.6631 H   0  0  0  0  0  0  0  0  0  0  0  0
  1  2  1  0  0  0  0
  1 24  1  0  0  0  0
  1 25  1  0  0  0  0
  1 26  1  0  0  0  0
  2  3  1  0  0  0  0
  2  7  2  0  0  0  0
  3  4  2  0  0  0  0
  3 27  1  0  0  0  0
  4  5  1  0  0  0  0
  4 28  1  0  0  0  0
  5  6  2  0  0  0  0
  6  7  1  0  0  0  0
  6 29  1  0  0  0  0
  7  8  1  0  0  0  0
  8  9  1  0  0  0  0
  8 30  1  0  0  0  0
  9 10  2  0  0  0  0
  9 11  1  0  0  0  0
 11 12  1  0  0  0  0
 11 31  1  0  0  0  0
 11 32  1  0  0  0  0
 12 13  1  0  0  0  0
 12 21  1  0  0  0  0
 13 14  1  0  0  0  0
 13 18  2  0  0  0  0
 14 15  2  0  0  0  0
 14 33  1  0  0  0  0
 15 16  1  0  0  0  0
 15 23  1  0  0  0  0
 16 17  2  0  0  0  0
 16 34  1  0  0  0  0
 17 18  1  0  0  0  0
 17 35  1  0  0  0  0
 18 19  1  0  0  0  0
 19 20  1  0  0  0  0
 20 21  1  0  0  0  0
 20 36  1  0  0  0  0
 20 37  1  0  0  0  0
 21 22  2  0  0  0  0
M  END
$$$$
