
 OpenBabel07202414153D

 46 49  0  0  1  0  0  0  0  0999 V2000
    4.0784   -1.2065   -0.4616 C   0  0  0  0  0  0  0  0  0  0  0  0
    2.9207    0.0696   -0.0087 S   0  0  0  0  0  0  0  0  0  0  0  0
    3.1349    1.1988   -0.8870 O   0  0  0  0  0  0  0  0  0  0  0  0
    1.6098   -0.5110    0.1744 O   0  0  0  0  0  0  0  0  0  0  0  0
    3.4817    0.5461    1.5390 N   0  0  0  0  0  0  0  0  0  0  0  0
    3.2543   -0.4603    2.6292 C   0  0  0  0  0  0  0  0  0  0  0  0
    4.0773   -0.0750    3.8682 C   0  0  3  0  0  0  0  0  0  0  0  0
    5.5850   -0.2800    3.6113 C   0  0  0  0  0  0  0  0  0  0  0  0
    6.2535   -0.9925    4.3540 O   0  0  0  0  0  0  0  0  0  0  0  0
    6.0510    0.3824    2.4942 N   0  0  0  0  0  0  0  0  0  0  0  0
    7.2915    0.2441    1.8256 C   0  0  0  0  0  0  0  0  0  0  0  0
    8.2711   -0.6594    2.2341 C   0  0  0  0  0  0  0  0  0  0  0  0
    9.3770   -0.9605    1.5145 N   0  0  0  0  0  0  0  0  0  0  0  0
    9.5471   -0.2874    0.3564 C   0  0  0  0  0  0  0  0  0  0  0  0
    8.7032    0.7177   -0.1078 C   0  0  0  0  0  0  0  0  0  0  0  0
    9.0086    1.4451   -1.2726 C   0  0  0  0  0  0  0  0  0  0  0  0
    8.1781    2.4736   -1.7131 C   0  0  0  0  0  0  0  0  0  0  0  0
    7.0166    2.7617   -1.0111 C   0  0  0  0  0  0  0  0  0  0  0  0
    6.6979    2.0332    0.1381 C   0  0  0  0  0  0  0  0  0  0  0  0
    7.5332    0.9997    0.6371 C   0  0  0  0  0  0  0  0  0  0  0  0
    3.7468    1.3402    4.3017 C   0  0  0  0  0  0  0  0  0  0  0  0
    3.8948    1.7122    5.6490 C   0  0  0  0  0  0  0  0  0  0  0  0
    3.6197    3.0202    6.0504 C   0  0  0  0  0  0  0  0  0  0  0  0
    3.7512    3.4429    7.7134 Cl  0  0  0  0  0  0  0  0  0  0  0  0
    3.2302    3.9642    5.1062 C   0  0  0  0  0  0  0  0  0  0  0  0
    2.9858    5.2340    5.4641 F   0  0  0  0  0  0  0  0  0  0  0  0
    3.0657    3.6074    3.7699 C   0  0  0  0  0  0  0  0  0  0  0  0
    3.2988    2.2856    3.3565 C   0  0  0  0  0  0  0  0  0  0  0  0
    2.9791    1.9020    1.9237 C   0  0  0  0  0  0  0  0  0  0  0  0
    3.8454   -1.5168   -1.4836 H   0  0  0  0  0  0  0  0  0  0  0  0
    3.9701   -2.0628    0.2062 H   0  0  0  0  0  0  0  0  0  0  0  0
    5.0899   -0.8016   -0.4251 H   0  0  0  0  0  0  0  0  0  0  0  0
    3.5538   -1.4591    2.2967 H   0  0  0  0  0  0  0  0  0  0  0  0
    2.1847   -0.4891    2.8788 H   0  0  0  0  0  0  0  0  0  0  0  0
    3.7920   -0.7675    4.6715 H   0  0  0  0  0  0  0  0  0  0  0  0
    5.3474    0.9147    1.9936 H   0  0  0  0  0  0  0  0  0  0  0  0
    8.2007   -1.2104    3.1652 H   0  0  0  0  0  0  0  0  0  0  0  0
   10.4272   -0.5885   -0.2068 H   0  0  0  0  0  0  0  0  0  0  0  0
    9.9173    1.2311   -1.8343 H   0  0  0  0  0  0  0  0  0  0  0  0
    8.4437    3.0545   -2.5930 H   0  0  0  0  0  0  0  0  0  0  0  0
    6.3619    3.5614   -1.3472 H   0  0  0  0  0  0  0  0  0  0  0  0
    5.7897    2.3252    0.6556 H   0  0  0  0  0  0  0  0  0  0  0  0
    4.2084    0.9784    6.3900 H   0  0  0  0  0  0  0  0  0  0  0  0
    2.7401    4.3682    3.0646 H   0  0  0  0  0  0  0  0  0  0  0  0
    3.4649    2.6353    1.2698 H   0  0  0  0  0  0  0  0  0  0  0  0
    1.8958    1.9502    1.7843 H   0  0  0  0  0  0  0  0  0  0  0  0
  1  2  1  0  0  0  0
  1 30  1  0  0  0  0
  1 31  1  0  0  0  0
  1 32  1  0  0  0  0
  2  3  2  0  0  0  0
  2  4  2  0  0  0  0
  2  5  1  0  0  0  0
  5  6  1  0  0  0  0
  5 29  1  0  0  0  0
  6  7  1  0  0  0  0
  6 33  1  0  0  0  0
  6 34  1  0  0  0  0
  7  8  1  0  0  0  0
  7 21  1  0  0  0  0
  7 35  1  0  0  0  0
  8  9  2  0  0  0  0
  8 10  1  0  0  0  0
 10 11  1  0  0  0  0
 10 36  1  0  0  0  0
 11 12  1  0  0  0  0
 11 20  2  0  0  0  0
 12 13  2  0  0  0  0
 12 37  1  0  0  0  0
 13 14  1  0  0  0  0
 14 15  2  0  0  0  0
 14 38  1  0  0  0  0
 15 16  1  0  0  0  0
 15 20  1  0  0  0  0
 16 17  2  0  0  0  0
 16 39  1  0  0  0  0
 17 18  1  0  0  0  0
 17 40  1  0  0  0  0
 18 19  2  0  0  0  0
 18 41  1  0  0  0  0
 19 20  1  0  0  0  0
 19 42  1  0  0  0  0
 21 22  1  0  0  0  0
 21 28  2  0  0  0  0
 22 23  2  0  0  0  0
 22 43  1  0  0  0  0
 23 24  1  0  0  0  0
 23 25  1  0  0  0  0
 25 26  1  0  0  0  0
 25 27  2  0  0  0  0
 27 28  1  0  0  0  0
 27 44  1  0  0  0  0
 28 29  1  0  0  0  0
 29 45  1  0  0  0  0
 29 46  1  0  0  0  0
M  END
$$$$
