
 OpenBabel07202414153D

 44 46  0  0  1  0  0  0  0  0999 V2000
    4.0516    1.6593    2.5265 C   0  0  0  0  0  0  0  0  0  0  0  0
    5.1835    1.1645    3.8131 S   0  0  0  0  0  0  0  0  0  0  0  0
    5.6308    2.3659    4.4816 O   0  0  0  0  0  0  0  0  0  0  0  0
    4.6006    0.0617    4.5479 O   0  0  0  0  0  0  0  0  0  0  0  0
    6.5114    0.6048    2.9631 N   0  0  0  0  0  0  0  0  0  0  0  0
    6.4125   -0.5454    2.1454 C   0  0  0  0  0  0  0  0  0  0  0  0
    6.0796   -0.4154    0.7972 C   0  0  0  0  0  0  0  0  0  0  0  0
    6.0259   -1.5464   -0.0146 C   0  0  0  0  0  0  0  0  0  0  0  0
    6.3570   -2.7958    0.5120 C   0  0  0  0  0  0  0  0  0  0  0  0
    6.7321   -2.9193    1.8569 C   0  0  0  0  0  0  0  0  0  0  0  0
    7.2301   -4.2277    2.3426 C   0  0  0  0  0  0  0  0  0  0  0  0
    7.3993   -5.2512    1.5592 N   0  0  0  0  0  0  0  0  0  0  0  0
    7.9562   -6.2484    2.3186 N   0  0  0  0  0  0  0  0  0  0  0  0
    8.1426   -7.5347    1.8227 C   0  0  0  0  0  0  0  0  0  0  0  0
    8.5378   -8.4615    2.5296 O   0  0  0  0  0  0  0  0  0  0  0  0
    7.7757   -7.6860    0.3541 C   0  0  0  0  0  0  0  0  0  0  0  0
    8.1699   -9.3059   -0.2639 Cl  0  0  0  0  0  0  0  0  0  0  0  0
    8.1184   -5.8833    3.7245 C   0  0  3  0  0  0  0  0  0  0  0  0
    9.5338   -6.0241    4.2457 C   0  0  0  0  0  0  0  0  0  0  0  0
   10.6108   -5.3381    3.6587 C   0  0  0  0  0  0  0  0  0  0  0  0
   11.8956   -5.4439    4.1928 C   0  0  0  0  0  0  0  0  0  0  0  0
   12.1262   -6.2454    5.3097 C   0  0  0  0  0  0  0  0  0  0  0  0
   11.0729   -6.9442    5.8910 C   0  0  0  0  0  0  0  0  0  0  0  0
    9.7844   -6.8362    5.3645 C   0  0  0  0  0  0  0  0  0  0  0  0
    7.6332   -4.4358    3.7791 C   0  0  0  0  0  0  0  0  0  0  0  0
    6.7229   -1.7927    2.6851 C   0  0  0  0  0  0  0  0  0  0  0  0
    3.2004    2.1539    2.9989 H   0  0  0  0  0  0  0  0  0  0  0  0
    3.7035    0.7756    1.9896 H   0  0  0  0  0  0  0  0  0  0  0  0
    4.5561    2.3590    1.8572 H   0  0  0  0  0  0  0  0  0  0  0  0
    7.2279    1.3000    2.7592 H   0  0  0  0  0  0  0  0  0  0  0  0
    5.8682    0.5586    0.3648 H   0  0  0  0  0  0  0  0  0  0  0  0
    5.7562   -1.4543   -1.0644 H   0  0  0  0  0  0  0  0  0  0  0  0
    6.3463   -3.6655   -0.1426 H   0  0  0  0  0  0  0  0  0  0  0  0
    8.3232   -6.9620   -0.2551 H   0  0  0  0  0  0  0  0  0  0  0  0
    6.6983   -7.5420    0.2329 H   0  0  0  0  0  0  0  0  0  0  0  0
    7.4417   -6.5290    4.3041 H   0  0  0  0  0  0  0  0  0  0  0  0
   10.4538   -4.7127    2.7833 H   0  0  0  0  0  0  0  0  0  0  0  0
   12.7208   -4.9021    3.7361 H   0  0  0  0  0  0  0  0  0  0  0  0
   13.1277   -6.3321    5.7207 H   0  0  0  0  0  0  0  0  0  0  0  0
   11.2521   -7.5824    6.7544 H   0  0  0  0  0  0  0  0  0  0  0  0
    8.9792   -7.3969    5.8298 H   0  0  0  0  0  0  0  0  0  0  0  0
    8.4088   -3.7170    4.0585 H   0  0  0  0  0  0  0  0  0  0  0  0
    6.7708   -4.3200    4.4407 H   0  0  0  0  0  0  0  0  0  0  0  0
    6.9948   -1.8547    3.7344 H   0  0  0  0  0  0  0  0  0  0  0  0
  1  2  1  0  0  0  0
  1 27  1  0  0  0  0
  1 28  1  0  0  0  0
  1 29  1  0  0  0  0
  2  3  2  0  0  0  0
  2  4  2  0  0  0  0
  2  5  1  0  0  0  0
  5  6  1  0  0  0  0
  5 30  1  0  0  0  0
  6  7  1  0  0  0  0
  6 26  2  0  0  0  0
  7  8  2  0  0  0  0
  7 31  1  0  0  0  0
  8  9  1  0  0  0  0
  8 32  1  0  0  0  0
  9 10  2  0  0  0  0
  9 33  1  0  0  0  0
 10 11  1  0  0  0  0
 10 26  1  0  0  0  0
 11 12  2  0  0  0  0
 11 25  1  0  0  0  0
 12 13  1  0  0  0  0
 13 14  1  0  0  0  0
 13 18  1  0  0  0  0
 14 15  2  0  0  0  0
 14 16  1  0  0  0  0
 16 17  1  0  0  0  0
 16 34  1  0  0  0  0
 16 35  1  0  0  0  0
 18 19  1  0  0  0  0
 18 25  1  0  0  0  0
 18 36  1  0  0  0  0
 19 20  1  0  0  0  0
 19 24  2  0  0  0  0
 20 21  2  0  0  0  0
 20 37  1  0  0  0  0
 21 22  1  0  0  0  0
 21 38  1  0  0  0  0
 22 23  2  0  0  0  0
 22 39  1  0  0  0  0
 23 24  1  0  0  0  0
 23 40  1  0  0  0  0
 24 41  1  0  0  0  0
 25 42  1  0  0  0  0
 25 43  1  0  0  0  0
 26 44  1  0  0  0  0
M  END
$$$$
