
 OpenBabel07202414153D

 43 45  0  0  0  0  0  0  0  0999 V2000
    1.0392   -0.0617    0.4517 C   0  0  0  0  0  0  0  0  0  0  0  0
    2.3648   -0.2393   -0.0413 O   0  0  0  0  0  0  0  0  0  0  0  0
    3.1468    0.8801   -0.1516 C   0  0  0  0  0  0  0  0  0  0  0  0
    2.9379    2.0058    0.6618 C   0  0  0  0  0  0  0  0  0  0  0  0
    3.7649    3.1274    0.5726 C   0  0  0  0  0  0  0  0  0  0  0  0
    4.8184    3.1405   -0.3312 C   0  0  0  0  0  0  0  0  0  0  0  0
    5.0488    2.0232   -1.1319 C   0  0  0  0  0  0  0  0  0  0  0  0
    4.2318    0.8835   -1.0505 C   0  0  0  0  0  0  0  0  0  0  0  0
    4.6572   -0.1118   -1.8993 O   0  0  0  0  0  0  0  0  0  0  0  0
    3.7925   -1.2300   -2.0971 C   0  0  0  0  0  0  0  0  0  0  0  0
    4.3464   -2.1089   -3.2323 C   0  0  0  0  0  0  0  0  0  0  0  0
    3.6811   -3.3859   -3.4937 N   0  0  0  0  0  0  0  0  0  0  0  0
    2.3735   -3.6218   -3.1413 C   0  0  0  0  0  0  0  0  0  0  0  0
    1.7315   -2.9143   -2.3717 O   0  0  0  0  0  0  0  0  0  0  0  0
    1.7050   -4.7137   -3.8993 C   0  0  0  0  0  0  0  0  0  0  0  0
    0.3696   -4.5064   -3.9496 C   0  0  0  0  0  0  0  0  0  0  0  0
   -0.4250   -5.2854   -4.8987 C   0  0  0  0  0  0  0  0  0  0  0  0
   -1.3854   -4.7824   -5.4737 O   0  0  0  0  0  0  0  0  0  0  0  0
    0.0335   -6.5564   -5.0986 N   0  0  0  0  0  0  0  0  0  0  0  0
    1.1173   -7.0346   -4.4108 C   0  0  0  0  0  0  0  0  0  0  0  0
    1.1794   -8.3906   -4.1045 C   0  0  0  0  0  0  0  0  0  0  0  0
    2.2551   -8.8671   -3.3566 C   0  0  0  0  0  0  0  0  0  0  0  0
    3.3291   -8.0224   -3.0655 C   0  0  0  0  0  0  0  0  0  0  0  0
    3.2559   -6.6601   -3.3717 C   0  0  0  0  0  0  0  0  0  0  0  0
    2.0916   -6.1374   -3.9418 C   0  0  0  0  0  0  0  0  0  0  0  0
    0.4929   -0.9993    0.2916 H   0  0  0  0  0  0  0  0  0  0  0  0
    0.5094    0.7289   -0.0888 H   0  0  0  0  0  0  0  0  0  0  0  0
    1.0434    0.1283    1.5291 H   0  0  0  0  0  0  0  0  0  0  0  0
    2.1450    2.0277    1.4024 H   0  0  0  0  0  0  0  0  0  0  0  0
    3.5905    3.9814    1.2222 H   0  0  0  0  0  0  0  0  0  0  0  0
    5.4707    4.0066   -0.4032 H   0  0  0  0  0  0  0  0  0  0  0  0
    5.8847    2.0304   -1.8276 H   0  0  0  0  0  0  0  0  0  0  0  0
    2.8047   -0.8596   -2.3915 H   0  0  0  0  0  0  0  0  0  0  0  0
    3.7489   -1.8281   -1.1805 H   0  0  0  0  0  0  0  0  0  0  0  0
    5.4038   -2.3390   -3.0388 H   0  0  0  0  0  0  0  0  0  0  0  0
    4.3318   -1.5375   -4.1690 H   0  0  0  0  0  0  0  0  0  0  0  0
    4.0747   -3.9417   -4.2427 H   0  0  0  0  0  0  0  0  0  0  0  0
   -0.1423   -4.3581   -2.9977 H   0  0  0  0  0  0  0  0  0  0  0  0
   -0.5429   -7.1399   -5.7077 H   0  0  0  0  0  0  0  0  0  0  0  0
    0.3341   -9.0477   -4.2954 H   0  0  0  0  0  0  0  0  0  0  0  0
    2.2524   -9.8911   -2.9813 H   0  0  0  0  0  0  0  0  0  0  0  0
    4.1979   -8.4168   -2.5439 H   0  0  0  0  0  0  0  0  0  0  0  0
    4.0846   -6.0216   -3.0773 H   0  0  0  0  0  0  0  0  0  0  0  0
  1  2  1  0  0  0  0
  1 26  1  0  0  0  0
  1 27  1  0  0  0  0
  1 28  1  0  0  0  0
  2  3  1  0  0  0  0
  3  4  1  0  0  0  0
  3  8  2  0  0  0  0
  4  5  2  0  0  0  0
  4 29  1  0  0  0  0
  5  6  1  0  0  0  0
  5 30  1  0  0  0  0
  6  7  2  0  0  0  0
  6 31  1  0  0  0  0
  7  8  1  0  0  0  0
  7 32  1  0  0  0  0
  8  9  1  0  0  0  0
  9 10  1  0  0  0  0
 10 11  1  0  0  0  0
 10 33  1  0  0  0  0
 10 34  1  0  0  0  0
 11 12  1  0  0  0  0
 11 35  1  0  0  0  0
 11 36  1  0  0  0  0
 12 13  1  0  0  0  0
 12 37  1  0  0  0  0
 13 14  2  0  0  0  0
 13 15  1  0  0  0  0
 15 16  2  0  0  0  0
 15 25  1  0  0  0  0
 16 17  1  0  0  0  0
 16 38  1  0  0  0  0
 17 18  2  0  0  0  0
 17 19  1  0  0  0  0
 19 20  1  0  0  0  0
 19 39  1  0  0  0  0
 20 21  1  0  0  0  0
 20 25  2  0  0  0  0
 21 22  2  0  0  0  0
 21 40  1  0  0  0  0
 22 23  1  0  0  0  0
 22 41  1  0  0  0  0
 23 24  2  0  0  0  0
 23 42  1  0  0  0  0
 24 25  1  0  0  0  0
 24 43  1  0  0  0  0
M  END
$$$$
