
 OpenBabel07202414153D

 39 42  0  0  0  0  0  0  0  0999 V2000
    0.8558   -0.1262    0.0820 C   0  0  0  0  0  0  0  0  0  0  0  0
    2.3445   -0.1282    0.0646 C   0  0  0  0  0  0  0  0  0  0  0  0
    3.1806    0.9949    0.0731 C   0  0  0  0  0  0  0  0  0  0  0  0
    4.4743    0.5421    0.0215 N   0  0  0  0  0  0  0  0  0  0  0  0
    4.5003   -0.8159   -0.0136 C   0  0  0  0  0  0  0  0  0  0  0  0
    3.2038   -1.2829    0.0270 C   0  0  0  0  0  0  0  0  0  0  0  0
    3.0577   -2.6839    0.0119 C   0  0  0  0  0  0  0  0  0  0  0  0
    4.1700   -3.4505   -0.0494 N   0  0  0  0  0  0  0  0  0  0  0  0
    5.3703   -2.8511   -0.0969 C   0  0  0  0  0  0  0  0  0  0  0  0
    5.6327   -1.5362   -0.0829 N   0  0  0  0  0  0  0  0  0  0  0  0
    1.7899   -3.2587    0.0701 N   0  0  0  0  0  0  0  0  0  0  0  0
    1.5142   -4.6000    0.0466 C   0  0  0  0  0  0  0  0  0  0  0  0
    2.3088   -5.5301   -0.0292 O   0  0  0  0  0  0  0  0  0  0  0  0
    0.0383   -4.8599    0.1558 C   0  0  0  0  0  0  0  0  0  0  0  0
   -0.3891   -6.1201    0.0467 C   0  0  0  0  0  0  0  0  0  0  0  0
   -1.7769   -6.3979    0.3753 C   0  0  0  0  0  0  0  0  0  0  0  0
   -2.1537   -7.7214    0.5127 C   0  0  0  0  0  0  0  0  0  0  0  0
   -2.8367   -8.0781    1.6672 C   0  0  0  0  0  0  0  0  0  0  0  0
   -3.5930   -7.1129    2.3246 C   0  0  0  0  0  0  0  0  0  0  0  0
   -3.5306   -5.7814    1.9007 C   0  0  0  0  0  0  0  0  0  0  0  0
   -2.5204   -5.4096    1.0119 C   0  0  0  0  0  0  0  0  0  0  0  0
   -2.1269   -4.0001    0.8365 C   0  0  0  0  0  0  0  0  0  0  0  0
   -2.8968   -3.0846    1.0950 O   0  0  0  0  0  0  0  0  0  0  0  0
   -0.8341   -3.7768    0.4334 O   0  0  0  0  0  0  0  0  0  0  0  0
    2.8930    2.4479    0.1231 C   0  0  0  0  0  0  0  0  0  0  0  0
    0.4396    0.8864    0.0914 H   0  0  0  0  0  0  0  0  0  0  0  0
    0.4815   -0.6468    0.9701 H   0  0  0  0  0  0  0  0  0  0  0  0
    0.4680   -0.6318   -0.8121 H   0  0  0  0  0  0  0  0  0  0  0  0
    5.3216    1.1532    0.0099 H   0  0  0  0  0  0  0  0  0  0  0  0
    6.2303   -3.5107   -0.1515 H   0  0  0  0  0  0  0  0  0  0  0  0
    1.0054   -2.6318    0.1495 H   0  0  0  0  0  0  0  0  0  0  0  0
    0.2981   -6.9522   -0.0937 H   0  0  0  0  0  0  0  0  0  0  0  0
   -2.5521   -8.1865   -0.3991 H   0  0  0  0  0  0  0  0  0  0  0  0
   -2.7716   -9.0997    2.0306 H   0  0  0  0  0  0  0  0  0  0  0  0
   -4.2043   -7.3975    3.1691 H   0  0  0  0  0  0  0  0  0  0  0  0
   -4.1459   -5.0291    2.3867 H   0  0  0  0  0  0  0  0  0  0  0  0
    1.8209    2.6577    0.1478 H   0  0  0  0  0  0  0  0  0  0  0  0
    3.3143    2.9474   -0.7569 H   0  0  0  0  0  0  0  0  0  0  0  0
    3.3434    2.8905    1.0192 H   0  0  0  0  0  0  0  0  0  0  0  0
  1  2  1  0  0  0  0
  1 26  1  0  0  0  0
  1 27  1  0  0  0  0
  1 28  1  0  0  0  0
  2  3  2  0  0  0  0
  2  6  1  0  0  0  0
  3  4  1  0  0  0  0
  3 25  1  0  0  0  0
  4  5  1  0  0  0  0
  4 29  1  0  0  0  0
  5  6  1  0  0  0  0
  5 10  2  0  0  0  0
  6  7  2  0  0  0  0
  7  8  1  0  0  0  0
  7 11  1  0  0  0  0
  8  9  2  0  0  0  0
  9 10  1  0  0  0  0
  9 30  1  0  0  0  0
 11 12  1  0  0  0  0
 11 31  1  0  0  0  0
 12 13  2  0  0  0  0
 12 14  1  0  0  0  0
 14 15  2  0  0  0  0
 14 24  1  0  0  0  0
 15 16  1  0  0  0  0
 15 32  1  0  0  0  0
 16 17  1  0  0  0  0
 16 21  2  0  0  0  0
 17 18  2  0  0  0  0
 17 33  1  0  0  0  0
 18 19  1  0  0  0  0
 18 34  1  0  0  0  0
 19 20  2  0  0  0  0
 19 35  1  0  0  0  0
 20 21  1  0  0  0  0
 20 36  1  0  0  0  0
 21 22  1  0  0  0  0
 22 23  2  0  0  0  0
 22 24  1  0  0  0  0
 25 37  1  0  0  0  0
 25 38  1  0  0  0  0
 25 39  1  0  0  0  0
M  END
$$$$
