
 OpenBabel07202414163D

 50 52  0  0  1  0  0  0  0  0999 V2000
   -9.5786    4.4951   -0.9797 C   0  0  0  0  0  0  0  0  0  0  0  0
   -9.9154    3.4577    0.0524 C   0  0  0  0  0  0  0  0  0  0  0  0
  -11.2732    3.1669    0.2722 C   0  0  0  0  0  0  0  0  0  0  0  0
  -11.6252    2.2136    1.2131 C   0  0  0  0  0  0  0  0  0  0  0  0
  -10.7318    1.5477    1.9579 N   0  0  0  0  0  0  0  0  0  0  0  0
   -9.4245    1.8313    1.7285 C   0  0  0  0  0  0  0  0  0  0  0  0
   -8.9468    2.7605    0.7956 C   0  0  0  0  0  0  0  0  0  0  0  0
   -7.5553    3.0135    0.6341 N   0  0  0  0  0  0  0  0  0  0  0  0
   -6.5519    2.1625    1.0353 C   0  0  0  0  0  0  0  0  0  0  0  0
   -6.7329    1.0186    1.4553 O   0  0  0  0  0  0  0  0  0  0  0  0
   -5.1318    2.7058    1.0558 C   0  0  0  0  0  0  0  0  0  0  0  0
   -4.7445    3.8111    0.0549 C   0  0  2  0  0  0  0  0  0  0  0  0
   -3.2229    4.0260    0.0496 C   0  0  0  0  0  0  0  0  0  0  0  0
   -2.4553    4.0201    1.2287 C   0  0  0  0  0  0  0  0  0  0  0  0
   -1.0610    4.1106    1.1809 C   0  0  0  0  0  0  0  0  0  0  0  0
   -0.4089    4.2375   -0.0394 C   0  0  0  0  0  0  0  0  0  0  0  0
   -1.1479    4.2733   -1.2176 C   0  0  0  0  0  0  0  0  0  0  0  0
   -2.5438    4.1675   -1.1733 C   0  0  0  0  0  0  0  0  0  0  0  0
   -5.5744    5.0389    0.2002 N   0  0  0  0  0  0  0  0  0  0  0  0
   -5.3141    6.0428   -0.8427 C   0  0  0  0  0  0  0  0  0  0  0  0
   -6.3851    7.1364   -0.8221 C   0  0  0  0  0  0  0  0  0  0  0  0
   -6.5547    7.7583    0.5615 C   0  0  3  0  0  0  0  0  0  0  0  0
   -6.6729    6.6901    1.6414 C   0  0  0  0  0  0  0  0  0  0  0  0
   -5.5570    5.6486    1.5362 C   0  0  0  0  0  0  0  0  0  0  0  0
   -5.4687    8.6366    0.8500 O   0  0  0  0  0  0  0  0  0  0  0  0
  -10.4641    4.7744   -1.5637 H   0  0  0  0  0  0  0  0  0  0  0  0
   -8.8372    4.1162   -1.6906 H   0  0  0  0  0  0  0  0  0  0  0  0
   -9.2055    5.4007   -0.4948 H   0  0  0  0  0  0  0  0  0  0  0  0
  -12.0573    3.6672   -0.2887 H   0  0  0  0  0  0  0  0  0  0  0  0
  -12.6655    1.9605    1.3981 H   0  0  0  0  0  0  0  0  0  0  0  0
   -8.7576    1.2831    2.3898 H   0  0  0  0  0  0  0  0  0  0  0  0
   -7.2772    3.8605    0.1386 H   0  0  0  0  0  0  0  0  0  0  0  0
   -4.4859    1.8371    0.8582 H   0  0  0  0  0  0  0  0  0  0  0  0
   -4.9302    2.9943    2.0928 H   0  0  0  0  0  0  0  0  0  0  0  0
   -5.0037    3.3938   -0.9304 H   0  0  0  0  0  0  0  0  0  0  0  0
   -2.9233    3.9106    2.2033 H   0  0  0  0  0  0  0  0  0  0  0  0
   -0.4835    4.0684    2.1007 H   0  0  0  0  0  0  0  0  0  0  0  0
    0.6769    4.2973   -0.0757 H   0  0  0  0  0  0  0  0  0  0  0  0
   -0.6407    4.3677   -2.1730 H   0  0  0  0  0  0  0  0  0  0  0  0
   -3.0939    4.1710   -2.1124 H   0  0  0  0  0  0  0  0  0  0  0  0
   -5.3380    5.5736   -1.8337 H   0  0  0  0  0  0  0  0  0  0  0  0
   -4.3243    6.4991   -0.7205 H   0  0  0  0  0  0  0  0  0  0  0  0
   -7.3398    6.7010   -1.1399 H   0  0  0  0  0  0  0  0  0  0  0  0
   -6.1203    7.9099   -1.5519 H   0  0  0  0  0  0  0  0  0  0  0  0
   -7.4580    8.3777    0.5696 H   0  0  0  0  0  0  0  0  0  0  0  0
   -7.6425    6.1836    1.5449 H   0  0  0  0  0  0  0  0  0  0  0  0
   -6.6414    7.1480    2.6365 H   0  0  0  0  0  0  0  0  0  0  0  0
   -5.7560    4.9105    2.3178 H   0  0  0  0  0  0  0  0  0  0  0  0
   -4.5840    6.0999    1.7602 H   0  0  0  0  0  0  0  0  0  0  0  0
   -4.6420    8.1259    0.8591 H   0  0  0  0  0  0  0  0  0  0  0  0
  1  2  1  0  0  0  0
  1 26  1  0  0  0  0
  1 27  1  0  0  0  0
  1 28  1  0  0  0  0
  2  3  1  0  0  0  0
  2  7  2  0  0  0  0
  3  4  2  0  0  0  0
  3 29  1  0  0  0  0
  4  5  1  0  0  0  0
  4 30  1  0  0  0  0
  5  6  2  0  0  0  0
  6  7  1  0  0  0  0
  6 31  1  0  0  0  0
  7  8  1  0  0  0  0
  8  9  1  0  0  0  0
  8 32  1  0  0  0  0
  9 10  2  0  0  0  0
  9 11  1  0  0  0  0
 11 33  1  0  0  0  0
 11 34  1  0  0  0  0
 12 19  1  0  0  0  0
 12 13  1  0  0  0  0
 12 11  1  0  0  0  0
 12 35  1  6  0  0  0
 13 14  1  0  0  0  0
 13 18  2  0  0  0  0
 14 15  2  0  0  0  0
 14 36  1  0  0  0  0
 15 16  1  0  0  0  0
 15 37  1  0  0  0  0
 16 17  2  0  0  0  0
 16 38  1  0  0  0  0
 17 18  1  0  0  0  0
 17 39  1  0  0  0  0
 18 40  1  0  0  0  0
 19 20  1  0  0  0  0
 19 24  1  0  0  0  0
 20 21  1  0  0  0  0
 20 41  1  0  0  0  0
 20 42  1  0  0  0  0
 21 22  1  0  0  0  0
 21 43  1  0  0  0  0
 21 44  1  0  0  0  0
 22 23  1  0  0  0  0
 22 25  1  0  0  0  0
 22 45  1  0  0  0  0
 23 24  1  0  0  0  0
 23 46  1  0  0  0  0
 23 47  1  0  0  0  0
 24 48  1  0  0  0  0
 24 49  1  0  0  0  0
 25 50  1  0  0  0  0
M  END
$$$$
