
 OpenBabel07202414163D

 36 37  0  0  0  0  0  0  0  0999 V2000
   -2.6143    1.9000   -4.6865 C   0  0  0  0  0  0  0  0  0  0  0  0
   -1.7457    1.0936   -3.7624 C   0  0  0  0  0  0  0  0  0  0  0  0
   -1.0451    0.0041   -4.3084 C   0  0  0  0  0  0  0  0  0  0  0  0
   -0.2160   -0.7508   -3.4963 C   0  0  0  0  0  0  0  0  0  0  0  0
   -0.0162   -0.4860   -2.1956 N   0  0  0  0  0  0  0  0  0  0  0  0
   -0.6977    0.5678   -1.6792 C   0  0  0  0  0  0  0  0  0  0  0  0
   -1.5791    1.3842   -2.3939 C   0  0  0  0  0  0  0  0  0  0  0  0
   -2.2839    2.4640   -1.7980 N   0  0  0  0  0  0  0  0  0  0  0  0
   -2.4085    2.6889   -0.4345 C   0  0  0  0  0  0  0  0  0  0  0  0
   -1.9692    1.9651    0.4557 O   0  0  0  0  0  0  0  0  0  0  0  0
   -3.2262    3.9207   -0.0780 C   0  0  0  0  0  0  0  0  0  0  0  0
   -4.7174    3.6854    0.0234 C   0  0  0  0  0  0  0  0  0  0  0  0
   -5.2557    2.4257    0.3187 C   0  0  0  0  0  0  0  0  0  0  0  0
   -6.6364    2.2650    0.4775 C   0  0  0  0  0  0  0  0  0  0  0  0
   -7.5106    3.3407    0.3458 C   0  0  0  0  0  0  0  0  0  0  0  0
   -6.9784    4.5966    0.0734 C   0  0  0  0  0  0  0  0  0  0  0  0
   -5.5986    4.7746   -0.0793 C   0  0  0  0  0  0  0  0  0  0  0  0
   -8.0264    5.9561   -0.0545 Cl  0  0  0  0  0  0  0  0  0  0  0  0
   -7.2505    0.6639    0.9032 S   0  0  0  0  0  0  0  0  0  0  0  0
   -8.6529    0.7598    1.2175 O   0  0  0  0  0  0  0  0  0  0  0  0
   -6.7243   -0.2908   -0.0420 O   0  0  0  0  0  0  0  0  0  0  0  0
   -6.4727    0.3857    2.3615 N   0  0  0  0  0  0  0  0  0  0  0  0
   -2.8218    1.3520   -5.6131 H   0  0  0  0  0  0  0  0  0  0  0  0
   -2.1118    2.8347   -4.9538 H   0  0  0  0  0  0  0  0  0  0  0  0
   -3.5854    2.1196   -4.2315 H   0  0  0  0  0  0  0  0  0  0  0  0
   -1.1467   -0.2653   -5.3555 H   0  0  0  0  0  0  0  0  0  0  0  0
    0.3249   -1.6085   -3.8844 H   0  0  0  0  0  0  0  0  0  0  0  0
   -0.4681    0.7373   -0.6324 H   0  0  0  0  0  0  0  0  0  0  0  0
   -2.8386    3.0451   -2.4126 H   0  0  0  0  0  0  0  0  0  0  0  0
   -3.0131    4.7091   -0.8095 H   0  0  0  0  0  0  0  0  0  0  0  0
   -2.8661    4.2808    0.8947 H   0  0  0  0  0  0  0  0  0  0  0  0
   -4.6072    1.5592    0.4548 H   0  0  0  0  0  0  0  0  0  0  0  0
   -8.5818    3.2110    0.4742 H   0  0  0  0  0  0  0  0  0  0  0  0
   -5.2088    5.7750   -0.2624 H   0  0  0  0  0  0  0  0  0  0  0  0
   -7.1511    0.3064    3.1184 H   0  0  0  0  0  0  0  0  0  0  0  0
   -5.8305   -0.4035    2.2851 H   0  0  0  0  0  0  0  0  0  0  0  0
  1  2  1  0  0  0  0
  1 23  1  0  0  0  0
  1 24  1  0  0  0  0
  1 25  1  0  0  0  0
  2  3  1  0  0  0  0
  2  7  2  0  0  0  0
  3  4  2  0  0  0  0
  3 26  1  0  0  0  0
  4  5  1  0  0  0  0
  4 27  1  0  0  0  0
  5  6  2  0  0  0  0
  6  7  1  0  0  0  0
  6 28  1  0  0  0  0
  7  8  1  0  0  0  0
  8  9  1  0  0  0  0
  8 29  1  0  0  0  0
  9 10  2  0  0  0  0
  9 11  1  0  0  0  0
 11 12  1  0  0  0  0
 11 30  1  0  0  0  0
 11 31  1  0  0  0  0
 12 13  1  0  0  0  0
 12 17  2  0  0  0  0
 13 14  2  0  0  0  0
 13 32  1  0  0  0  0
 14 15  1  0  0  0  0
 14 19  1  0  0  0  0
 15 16  2  0  0  0  0
 15 33  1  0  0  0  0
 16 17  1  0  0  0  0
 16 18  1  0  0  0  0
 17 34  1  0  0  0  0
 19 20  2  0  0  0  0
 19 21  2  0  0  0  0
 19 22  1  0  0  0  0
 22 35  1  0  0  0  0
 22 36  1  0  0  0  0
M  END
$$$$
