
 OpenBabel07202414153D

 47 50  0  0  1  0  0  0  0  0999 V2000
    0.9583   -0.3682    0.0146 C   0  0  0  0  0  0  0  0  0  0  0  0
    2.4583   -0.0788    0.0857 C   0  0  2  0  0  0  0  0  0  0  0  0
    3.0953   -0.7255    1.3201 C   0  0  0  0  0  0  0  0  0  0  0  0
    2.6443   -0.0478    2.6027 C   0  0  0  0  0  0  0  0  0  0  0  0
    2.9886    1.4449    2.5716 C   0  0  2  0  0  0  0  0  0  0  0  0
    2.4525    2.1457    1.3197 C   0  0  0  0  0  0  0  0  0  0  0  0
    2.7969    1.3909    0.0616 N   0  0  0  0  0  0  0  0  0  0  0  0
    2.3877    2.1978   -1.3925 S   0  0  0  0  0  0  0  0  0  0  0  0
    3.6118    3.4933   -1.4568 C   0  0  0  0  0  0  0  0  0  0  0  0
    2.6652    1.2895   -2.4897 O   0  0  0  0  0  0  0  0  0  0  0  0
    1.0842    2.7943   -1.2197 O   0  0  0  0  0  0  0  0  0  0  0  0
    4.4028    1.6634    2.8024 N   0  0  0  0  0  0  0  0  0  0  0  0
    4.6572    1.9445    4.1349 C   0  0  0  0  0  0  0  0  0  0  0  0
    5.7759    1.8891    4.6115 O   0  0  0  0  0  0  0  0  0  0  0  0
    3.4549    2.2060    4.7481 N   0  0  0  0  0  0  0  0  0  0  0  0
    3.2780    2.3616    6.1390 C   0  0  0  0  0  0  0  0  0  0  0  0
    2.3982    1.5060    6.8093 C   0  0  0  0  0  0  0  0  0  0  0  0
    2.1919    1.5049    8.1434 N   0  0  0  0  0  0  0  0  0  0  0  0
    2.8716    2.4335    8.8494 C   0  0  0  0  0  0  0  0  0  0  0  0
    3.7380    3.3764    8.2939 C   0  0  0  0  0  0  0  0  0  0  0  0
    4.3598    4.3552    9.0885 C   0  0  0  0  0  0  0  0  0  0  0  0
    5.1748    5.3264    8.5109 C   0  0  0  0  0  0  0  0  0  0  0  0
    5.3824    5.3270    7.1377 C   0  0  0  0  0  0  0  0  0  0  0  0
    4.7842    4.3489    6.3411 C   0  0  0  0  0  0  0  0  0  0  0  0
    3.9560    3.3474    6.8982 C   0  0  0  0  0  0  0  0  0  0  0  0
    2.4204    2.0363    3.8601 C   0  0  0  0  0  0  0  0  0  0  0  0
    1.2292    2.2248    4.0659 O   0  0  0  0  0  0  0  0  0  0  0  0
    0.7501   -1.4029    0.3153 H   0  0  0  0  0  0  0  0  0  0  0  0
    0.5868   -0.2568   -1.0089 H   0  0  0  0  0  0  0  0  0  0  0  0
    0.3654    0.2893    0.6567 H   0  0  0  0  0  0  0  0  0  0  0  0
    2.9389   -0.5530   -0.7793 H   0  0  0  0  0  0  0  0  0  0  0  0
    4.1878   -0.6669    1.2402 H   0  0  0  0  0  0  0  0  0  0  0  0
    2.8434   -1.7917    1.3648 H   0  0  0  0  0  0  0  0  0  0  0  0
    3.1064   -0.5461    3.4642 H   0  0  0  0  0  0  0  0  0  0  0  0
    1.5607   -0.1763    2.7273 H   0  0  0  0  0  0  0  0  0  0  0  0
    2.9094    3.1413    1.2594 H   0  0  0  0  0  0  0  0  0  0  0  0
    1.3688    2.2879    1.3846 H   0  0  0  0  0  0  0  0  0  0  0  0
    4.6006    3.0520   -1.3180 H   0  0  0  0  0  0  0  0  0  0  0  0
    3.3974    4.2377   -0.6899 H   0  0  0  0  0  0  0  0  0  0  0  0
    3.5554    3.9591   -2.4406 H   0  0  0  0  0  0  0  0  0  0  0  0
    5.1479    1.2972    2.2197 H   0  0  0  0  0  0  0  0  0  0  0  0
    1.8431    0.7349    6.2809 H   0  0  0  0  0  0  0  0  0  0  0  0
    2.6758    2.4090    9.9192 H   0  0  0  0  0  0  0  0  0  0  0  0
    4.1962    4.3783   10.1641 H   0  0  0  0  0  0  0  0  0  0  0  0
    5.6392    6.0885    9.1315 H   0  0  0  0  0  0  0  0  0  0  0  0
    6.0056    6.0900    6.6788 H   0  0  0  0  0  0  0  0  0  0  0  0
    4.9620    4.3959    5.2698 H   0  0  0  0  0  0  0  0  0  0  0  0
  1  2  1  0  0  0  0
  1 28  1  0  0  0  0
  1 29  1  0  0  0  0
  1 30  1  0  0  0  0
  2  3  1  0  0  0  0
  2  7  1  0  0  0  0
  2 31  1  6  0  0  0
  3  4  1  0  0  0  0
  3 32  1  0  0  0  0
  3 33  1  0  0  0  0
  4  5  1  0  0  0  0
  4 34  1  0  0  0  0
  4 35  1  0  0  0  0
  5  6  1  0  0  0  0
  5 12  1  0  0  0  0
  5 26  1  1  0  0  0
  6  7  1  0  0  0  0
  6 36  1  0  0  0  0
  6 37  1  0  0  0  0
  7  8  1  0  0  0  0
  8  9  1  0  0  0  0
  8 10  2  0  0  0  0
  8 11  2  0  0  0  0
  9 38  1  0  0  0  0
  9 39  1  0  0  0  0
  9 40  1  0  0  0  0
 12 13  1  0  0  0  0
 12 41  1  0  0  0  0
 13 14  2  0  0  0  0
 13 15  1  0  0  0  0
 15 16  1  0  0  0  0
 15 26  1  0  0  0  0
 16 17  1  0  0  0  0
 16 25  2  0  0  0  0
 17 18  2  0  0  0  0
 17 42  1  0  0  0  0
 18 19  1  0  0  0  0
 19 20  2  0  0  0  0
 19 43  1  0  0  0  0
 20 21  1  0  0  0  0
 20 25  1  0  0  0  0
 21 22  2  0  0  0  0
 21 44  1  0  0  0  0
 22 23  1  0  0  0  0
 22 45  1  0  0  0  0
 23 24  2  0  0  0  0
 23 46  1  0  0  0  0
 24 25  1  0  0  0  0
 24 47  1  0  0  0  0
 26 27  2  0  0  0  0
M  END
$$$$
