
 OpenBabel07202414163D

 46 49  0  0  0  0  0  0  0  0999 V2000
   -2.0931   -0.2862    0.1090 Cl  0  0  0  0  0  0  0  0  0  0  0  0
   -0.3780   -0.1449    0.0651 C   0  0  0  0  0  0  0  0  0  0  0  0
    0.2109    1.1213    0.0634 C   0  0  0  0  0  0  0  0  0  0  0  0
    1.6046    1.2480    0.0146 C   0  0  0  0  0  0  0  0  0  0  0  0
    2.2594    2.6080   -0.0833 C   0  0  0  0  0  0  0  0  0  0  0  0
    3.2914    2.9232    0.9859 C   0  0  0  0  0  0  0  0  0  0  0  0
    4.4266    3.2846    0.6862 O   0  0  0  0  0  0  0  0  0  0  0  0
    2.8291    2.7997    2.2849 N   0  0  0  0  0  0  0  0  0  0  0  0
    3.6652    3.0798    3.3940 C   0  0  0  0  0  0  0  0  0  0  0  0
    4.3543    4.2913    3.4811 C   0  0  0  0  0  0  0  0  0  0  0  0
    5.1235    4.6575    4.5316 N   0  0  0  0  0  0  0  0  0  0  0  0
    5.2394    3.7550    5.5296 C   0  0  0  0  0  0  0  0  0  0  0  0
    4.6206    2.5014    5.5460 C   0  0  0  0  0  0  0  0  0  0  0  0
    4.8127    1.5933    6.6024 C   0  0  0  0  0  0  0  0  0  0  0  0
    4.2188    0.3321    6.5741 C   0  0  0  0  0  0  0  0  0  0  0  0
    3.4291   -0.0363    5.4931 C   0  0  0  0  0  0  0  0  0  0  0  0
    3.2166    0.8638    4.4487 C   0  0  0  0  0  0  0  0  0  0  0  0
    3.8000    2.1519    4.4503 C   0  0  0  0  0  0  0  0  0  0  0  0
    2.3825    0.0826   -0.0112 C   0  0  0  0  0  0  0  0  0  0  0  0
    1.7984   -1.1951    0.0241 C   0  0  0  0  0  0  0  0  0  0  0  0
    2.5817   -2.3670    0.0710 N   0  0  0  0  0  0  0  0  0  0  0  0
    3.8484   -2.5298    0.6530 C   0  0  0  0  0  0  0  0  0  0  0  0
    4.2135   -1.8035    1.7969 C   0  0  0  0  0  0  0  0  0  0  0  0
    5.4887   -1.8984    2.3489 C   0  0  0  0  0  0  0  0  0  0  0  0
    6.4188   -2.7551    1.7651 C   0  0  0  0  0  0  0  0  0  0  0  0
    8.3324   -2.8780    2.5596 I   0  0  0  0  0  0  0  0  0  0  0  0
    6.0735   -3.5195    0.6501 C   0  0  0  0  0  0  0  0  0  0  0  0
    4.7907   -3.4047    0.0991 C   0  0  0  0  0  0  0  0  0  0  0  0
    0.4057   -1.2978    0.0371 C   0  0  0  0  0  0  0  0  0  0  0  0
   -0.4232    2.0051    0.0794 H   0  0  0  0  0  0  0  0  0  0  0  0
    1.5088    3.4063   -0.0560 H   0  0  0  0  0  0  0  0  0  0  0  0
    2.7567    2.6729   -1.0591 H   0  0  0  0  0  0  0  0  0  0  0  0
    2.0823    2.1323    2.4258 H   0  0  0  0  0  0  0  0  0  0  0  0
    4.2726    5.0447    2.7019 H   0  0  0  0  0  0  0  0  0  0  0  0
    5.8810    4.0757    6.3472 H   0  0  0  0  0  0  0  0  0  0  0  0
    5.4406    1.8599    7.4503 H   0  0  0  0  0  0  0  0  0  0  0  0
    4.3807   -0.3658    7.3914 H   0  0  0  0  0  0  0  0  0  0  0  0
    2.9833   -1.0273    5.4527 H   0  0  0  0  0  0  0  0  0  0  0  0
    2.6122    0.5256    3.6127 H   0  0  0  0  0  0  0  0  0  0  0  0
    3.4671    0.1692   -0.0855 H   0  0  0  0  0  0  0  0  0  0  0  0
    2.3796   -3.0057   -0.6981 H   0  0  0  0  0  0  0  0  0  0  0  0
    3.4911   -1.1465    2.2707 H   0  0  0  0  0  0  0  0  0  0  0  0
    5.7359   -1.2986    3.2175 H   0  0  0  0  0  0  0  0  0  0  0  0
    6.7859   -4.1933    0.1920 H   0  0  0  0  0  0  0  0  0  0  0  0
    4.5366   -3.9994   -0.7755 H   0  0  0  0  0  0  0  0  0  0  0  0
   -0.0664   -2.2767    0.0589 H   0  0  0  0  0  0  0  0  0  0  0  0
  1  2  1  0  0  0  0
  2  3  2  0  0  0  0
  2 29  1  0  0  0  0
  3  4  1  0  0  0  0
  3 30  1  0  0  0  0
  4  5  1  0  0  0  0
  4 19  2  0  0  0  0
  5  6  1  0  0  0  0
  5 31  1  0  0  0  0
  5 32  1  0  0  0  0
  6  7  2  0  0  0  0
  6  8  1  0  0  0  0
  8  9  1  0  0  0  0
  8 33  1  0  0  0  0
  9 10  2  0  0  0  0
  9 18  1  0  0  0  0
 10 11  1  0  0  0  0
 10 34  1  0  0  0  0
 11 12  2  0  0  0  0
 12 13  1  0  0  0  0
 12 35  1  0  0  0  0
 13 14  2  0  0  0  0
 13 18  1  0  0  0  0
 14 15  1  0  0  0  0
 14 36  1  0  0  0  0
 15 16  2  0  0  0  0
 15 37  1  0  0  0  0
 16 17  1  0  0  0  0
 16 38  1  0  0  0  0
 17 18  2  0  0  0  0
 17 39  1  0  0  0  0
 19 20  1  0  0  0  0
 19 40  1  0  0  0  0
 20 21  1  0  0  0  0
 20 29  2  0  0  0  0
 21 22  1  0  0  0  0
 21 41  1  0  0  0  0
 22 23  2  0  0  0  0
 22 28  1  0  0  0  0
 23 24  1  0  0  0  0
 23 42  1  0  0  0  0
 24 25  2  0  0  0  0
 24 43  1  0  0  0  0
 25 26  1  0  0  0  0
 25 27  1  0  0  0  0
 27 28  2  0  0  0  0
 27 44  1  0  0  0  0
 28 45  1  0  0  0  0
 29 46  1  0  0  0  0
M  END
$$$$
