
 OpenBabel07202414173D

 46 48  0  0  1  0  0  0  0  0999 V2000
    0.8731    0.2484    0.0827 Cl  0  0  0  0  0  0  0  0  0  0  0  0
    2.6056    0.4414    0.4217 C   0  0  0  0  0  0  0  0  0  0  0  0
    3.1675   -0.7302    1.2085 C   0  0  0  0  0  0  0  0  0  0  0  0
    2.4578   -1.6368    1.6475 O   0  0  0  0  0  0  0  0  0  0  0  0
    4.5489   -0.7374    1.4091 N   0  0  0  0  0  0  0  0  0  0  0  0
    5.4815    0.3556    1.1034 C   0  0  0  0  0  0  0  0  0  0  0  0
    6.7315   -0.1185    0.3312 C   0  0  0  0  0  0  0  0  0  0  0  0
    7.3686   -1.3455    0.9233 N   0  0  0  0  0  0  0  0  0  0  0  0
    8.3466   -1.1051    2.2920 S   0  0  0  0  0  0  0  0  0  0  0  0
    7.6412   -0.2522    3.2226 O   0  0  0  0  0  0  0  0  0  0  0  0
    8.8762   -2.3911    2.6885 O   0  0  0  0  0  0  0  0  0  0  0  0
    9.7592   -0.1974    1.8530 C   0  0  0  0  0  0  0  0  0  0  0  0
   10.0731    1.1081    2.3448 C   0  0  0  0  0  0  0  0  0  0  0  0
   11.2860    1.5597    1.8686 C   0  0  0  0  0  0  0  0  0  0  0  0
   12.0343    0.4220    0.8307 S   0  0  0  0  0  0  0  0  0  0  0  0
   10.7443   -0.6870    1.0225 C   0  0  0  0  0  0  0  0  0  0  0  0
    6.3382   -2.4509    1.1142 C   0  0  2  0  0  0  0  0  0  0  0  0
    5.8750   -2.9417   -0.2766 C   0  0  0  0  0  0  0  0  0  0  0  0
    4.8190   -2.5385   -0.7823 O   0  0  0  0  0  0  0  0  0  0  0  0
    6.7255   -3.7570   -1.0051 N   0  0  0  0  0  0  0  0  0  0  0  0
    7.9607   -4.3762   -0.5200 C   0  0  0  0  0  0  0  0  0  0  0  0
    9.0741   -4.2357   -1.5616 C   0  0  0  0  0  0  0  0  0  0  0  0
    8.6651   -4.7485   -2.8380 O   0  0  0  0  0  0  0  0  0  0  0  0
    7.5052   -4.0517   -3.3212 C   0  0  0  0  0  0  0  0  0  0  0  0
    6.3318   -4.1971   -2.3487 C   0  0  0  0  0  0  0  0  0  0  0  0
    5.1543   -1.9512    1.9632 C   0  0  0  0  0  0  0  0  0  0  0  0
    2.7309    1.3628    0.9948 H   0  0  0  0  0  0  0  0  0  0  0  0
    3.1149    0.5141   -0.5429 H   0  0  0  0  0  0  0  0  0  0  0  0
    5.7649    0.8020    2.0607 H   0  0  0  0  0  0  0  0  0  0  0  0
    4.9912    1.1464    0.5318 H   0  0  0  0  0  0  0  0  0  0  0  0
    7.4652    0.6908    0.2563 H   0  0  0  0  0  0  0  0  0  0  0  0
    6.4497   -0.3543   -0.7028 H   0  0  0  0  0  0  0  0  0  0  0  0
    9.4566    1.6784    3.0307 H   0  0  0  0  0  0  0  0  0  0  0  0
   11.7790    2.4977    2.0880 H   0  0  0  0  0  0  0  0  0  0  0  0
   10.7821   -1.6533    0.5395 H   0  0  0  0  0  0  0  0  0  0  0  0
    6.7730   -3.3058    1.6394 H   0  0  0  0  0  0  0  0  0  0  0  0
    7.7284   -5.4356   -0.3580 H   0  0  0  0  0  0  0  0  0  0  0  0
    8.2933   -3.9551    0.4268 H   0  0  0  0  0  0  0  0  0  0  0  0
    9.9558   -4.7983   -1.2407 H   0  0  0  0  0  0  0  0  0  0  0  0
    9.3668   -3.1853   -1.6771 H   0  0  0  0  0  0  0  0  0  0  0  0
    7.2413   -4.4743   -4.2954 H   0  0  0  0  0  0  0  0  0  0  0  0
    7.7616   -2.9958   -3.4701 H   0  0  0  0  0  0  0  0  0  0  0  0
    6.0430   -5.2511   -2.2614 H   0  0  0  0  0  0  0  0  0  0  0  0
    5.4676   -3.6397   -2.7226 H   0  0  0  0  0  0  0  0  0  0  0  0
    5.4825   -1.7076    2.9798 H   0  0  0  0  0  0  0  0  0  0  0  0
    4.4180   -2.7563    2.0544 H   0  0  0  0  0  0  0  0  0  0  0  0
  1  2  1  0  0  0  0
  2  3  1  0  0  0  0
  2 27  1  0  0  0  0
  2 28  1  0  0  0  0
  3  4  2  0  0  0  0
  3  5  1  0  0  0  0
  5  6  1  0  0  0  0
  5 26  1  0  0  0  0
  6  7  1  0  0  0  0
  6 29  1  0  0  0  0
  6 30  1  0  0  0  0
  7  8  1  0  0  0  0
  7 31  1  0  0  0  0
  7 32  1  0  0  0  0
  8  9  1  0  0  0  0
  8 17  1  0  0  0  0
  9 10  2  0  0  0  0
  9 11  2  0  0  0  0
  9 12  1  0  0  0  0
 12 13  1  0  0  0  0
 12 16  2  0  0  0  0
 13 14  2  0  0  0  0
 13 33  1  0  0  0  0
 14 15  1  0  0  0  0
 14 34  1  0  0  0  0
 15 16  1  0  0  0  0
 16 35  1  0  0  0  0
 17 26  1  0  0  0  0
 17 18  1  0  0  0  0
 17 36  1  1  0  0  0
 18 19  2  0  0  0  0
 18 20  1  0  0  0  0
 20 21  1  0  0  0  0
 20 25  1  0  0  0  0
 21 22  1  0  0  0  0
 21 37  1  0  0  0  0
 21 38  1  0  0  0  0
 22 23  1  0  0  0  0
 22 39  1  0  0  0  0
 22 40  1  0  0  0  0
 23 24  1  0  0  0  0
 24 25  1  0  0  0  0
 24 41  1  0  0  0  0
 24 42  1  0  0  0  0
 25 43  1  0  0  0  0
 25 44  1  0  0  0  0
 26 45  1  0  0  0  0
 26 46  1  0  0  0  0
M  END
$$$$
