
 OpenBabel07202414163D

 52 55  0  0  0  0  0  0  0  0999 V2000
   -2.5664   -1.2546   -4.7974 Cl  0  0  0  0  0  0  0  0  0  0  0  0
   -1.4759   -1.8960   -3.6317 C   0  0  0  0  0  0  0  0  0  0  0  0
   -0.6576   -1.0361   -2.9058 C   0  0  0  0  0  0  0  0  0  0  0  0
    0.2253   -1.5564   -1.9565 C   0  0  0  0  0  0  0  0  0  0  0  0
    1.2227   -0.4387   -1.0959 Cl  0  0  0  0  0  0  0  0  0  0  0  0
    0.2894   -2.9400   -1.7191 C   0  0  0  0  0  0  0  0  0  0  0  0
    1.2236   -3.5508   -0.7013 C   0  0  0  0  0  0  0  0  0  0  0  0
    2.6122   -3.8357   -1.2782 C   0  0  0  0  0  0  0  0  0  0  0  0
    3.4442   -4.5443   -0.3080 N   0  0  0  0  0  0  0  0  0  0  0  0
    3.3808   -5.9237   -0.1366 C   0  0  0  0  0  0  0  0  0  0  0  0
    2.5914   -6.7633   -0.9275 C   0  0  0  0  0  0  0  0  0  0  0  0
    2.6456   -8.1482   -0.7804 C   0  0  0  0  0  0  0  0  0  0  0  0
    1.6367   -9.1416   -1.7594 Cl  0  0  0  0  0  0  0  0  0  0  0  0
    3.5187   -8.7328    0.1319 C   0  0  0  0  0  0  0  0  0  0  0  0
    4.3561   -7.9249    0.9067 C   0  0  0  0  0  0  0  0  0  0  0  0
    5.3708   -8.5487    1.8379 C   0  0  0  0  0  0  0  0  0  0  0  0
    4.9184   -8.8970    3.2451 C   0  0  0  0  0  0  0  0  0  0  0  0
    5.5667   -9.7024    3.9135 O   0  0  0  0  0  0  0  0  0  0  0  0
    3.7898   -8.2496    3.7065 N   0  0  0  0  0  0  0  0  0  0  0  0
    3.2811   -8.4308    5.0136 C   0  0  0  0  0  0  0  0  0  0  0  0
    4.1273   -8.4526    6.1261 C   0  0  0  0  0  0  0  0  0  0  0  0
    3.7077   -8.5582    7.4035 N   0  0  0  0  0  0  0  0  0  0  0  0
    2.3762   -8.6842    7.5889 C   0  0  0  0  0  0  0  0  0  0  0  0
    1.4297   -8.7027    6.5576 C   0  0  0  0  0  0  0  0  0  0  0  0
    0.0597   -8.8857    6.8219 C   0  0  0  0  0  0  0  0  0  0  0  0
   -0.8614   -8.9486    5.7786 C   0  0  0  0  0  0  0  0  0  0  0  0
   -0.4289   -8.8304    4.4639 C   0  0  0  0  0  0  0  0  0  0  0  0
    0.9262   -8.6382    4.1909 C   0  0  0  0  0  0  0  0  0  0  0  0
    1.8872   -8.5639    5.2316 C   0  0  0  0  0  0  0  0  0  0  0  0
    4.2642   -6.5263    0.7753 C   0  0  0  0  0  0  0  0  0  0  0  0
   -0.5384   -3.7915   -2.4727 C   0  0  0  0  0  0  0  0  0  0  0  0
   -1.4185   -3.2714   -3.4232 C   0  0  0  0  0  0  0  0  0  0  0  0
   -0.7068    0.0359   -3.0765 H   0  0  0  0  0  0  0  0  0  0  0  0
    0.7715   -4.4736   -0.3145 H   0  0  0  0  0  0  0  0  0  0  0  0
    1.3104   -2.9027    0.1796 H   0  0  0  0  0  0  0  0  0  0  0  0
    3.1133   -2.8937   -1.5290 H   0  0  0  0  0  0  0  0  0  0  0  0
    2.5555   -4.3850   -2.2267 H   0  0  0  0  0  0  0  0  0  0  0  0
    3.6238   -4.0244    0.5485 H   0  0  0  0  0  0  0  0  0  0  0  0
    1.9170   -6.3593   -1.6735 H   0  0  0  0  0  0  0  0  0  0  0  0
    3.5704   -9.8172    0.2089 H   0  0  0  0  0  0  0  0  0  0  0  0
    6.2412   -7.8877    1.9313 H   0  0  0  0  0  0  0  0  0  0  0  0
    5.7343   -9.4752    1.3742 H   0  0  0  0  0  0  0  0  0  0  0  0
    3.1514   -7.8867    3.0121 H   0  0  0  0  0  0  0  0  0  0  0  0
    5.2040   -8.3343    6.0172 H   0  0  0  0  0  0  0  0  0  0  0  0
    2.0781   -8.7927    8.6276 H   0  0  0  0  0  0  0  0  0  0  0  0
   -0.2939   -9.0008    7.8438 H   0  0  0  0  0  0  0  0  0  0  0  0
   -1.9164   -9.1094    5.9918 H   0  0  0  0  0  0  0  0  0  0  0  0
   -1.1401   -8.9040    3.6458 H   0  0  0  0  0  0  0  0  0  0  0  0
    1.2221   -8.5910    3.1487 H   0  0  0  0  0  0  0  0  0  0  0  0
    4.9278   -5.8929    1.3638 H   0  0  0  0  0  0  0  0  0  0  0  0
   -0.5082   -4.8695   -2.3203 H   0  0  0  0  0  0  0  0  0  0  0  0
   -2.0563   -3.9427   -3.9934 H   0  0  0  0  0  0  0  0  0  0  0  0
  1  2  1  0  0  0  0
  2  3  2  0  0  0  0
  2 32  1  0  0  0  0
  3  4  1  0  0  0  0
  3 33  1  0  0  0  0
  4  5  1  0  0  0  0
  4  6  2  0  0  0  0
  6  7  1  0  0  0  0
  6 31  1  0  0  0  0
  7  8  1  0  0  0  0
  7 34  1  0  0  0  0
  7 35  1  0  0  0  0
  8  9  1  0  0  0  0
  8 36  1  0  0  0  0
  8 37  1  0  0  0  0
  9 10  1  0  0  0  0
  9 38  1  0  0  0  0
 10 11  2  0  0  0  0
 10 30  1  0  0  0  0
 11 12  1  0  0  0  0
 11 39  1  0  0  0  0
 12 13  1  0  0  0  0
 12 14  2  0  0  0  0
 14 15  1  0  0  0  0
 14 40  1  0  0  0  0
 15 16  1  0  0  0  0
 15 30  2  0  0  0  0
 16 17  1  0  0  0  0
 16 41  1  0  0  0  0
 16 42  1  0  0  0  0
 17 18  2  0  0  0  0
 17 19  1  0  0  0  0
 19 20  1  0  0  0  0
 19 43  1  0  0  0  0
 20 21  2  0  0  0  0
 20 29  1  0  0  0  0
 21 22  1  0  0  0  0
 21 44  1  0  0  0  0
 22 23  2  0  0  0  0
 23 24  1  0  0  0  0
 23 45  1  0  0  0  0
 24 25  2  0  0  0  0
 24 29  1  0  0  0  0
 25 26  1  0  0  0  0
 25 46  1  0  0  0  0
 26 27  2  0  0  0  0
 26 47  1  0  0  0  0
 27 28  1  0  0  0  0
 27 48  1  0  0  0  0
 28 29  2  0  0  0  0
 28 49  1  0  0  0  0
 30 50  1  0  0  0  0
 31 32  2  0  0  0  0
 31 51  1  0  0  0  0
 32 52  1  0  0  0  0
M  END
$$$$
