
 OpenBabel07202414183D

 47 50  0  0  0  0  0  0  0  0999 V2000
    9.2363    3.4203   -2.5950 F   0  0  0  0  0  0  0  0  0  0  0  0
    8.2477    2.5497   -2.3403 C   0  0  0  0  0  0  0  0  0  0  0  0
    7.1721    2.9665   -1.5593 C   0  0  0  0  0  0  0  0  0  0  0  0
    6.1486    2.0759   -1.2207 C   0  0  0  0  0  0  0  0  0  0  0  0
    5.0616    2.4589   -0.4105 N   0  0  0  0  0  0  0  0  0  0  0  0
    4.3254    3.6568   -0.3687 C   0  0  0  0  0  0  0  0  0  0  0  0
    3.6567    4.0088    0.8199 C   0  0  0  0  0  0  0  0  0  0  0  0
    2.9181    5.2029    0.9259 C   0  0  0  0  0  0  0  0  0  0  0  0
    2.2387    5.6081    2.2181 C   0  0  0  0  0  0  0  0  0  0  0  0
    1.1856    4.6543    2.7540 C   0  0  0  0  0  0  0  0  0  0  0  0
    1.1310    4.4025    3.9575 O   0  0  0  0  0  0  0  0  0  0  0  0
    0.2807    4.1699    1.8235 N   0  0  0  0  0  0  0  0  0  0  0  0
   -0.2679    2.8562    1.8962 C   0  0  0  0  0  0  0  0  0  0  0  0
    0.3338    1.9171    2.7251 C   0  0  0  0  0  0  0  0  0  0  0  0
    0.6431    0.6814    2.2920 N   0  0  0  0  0  0  0  0  0  0  0  0
    0.1426    0.3289    1.0897 C   0  0  0  0  0  0  0  0  0  0  0  0
   -0.8275    1.0580    0.4069 C   0  0  0  0  0  0  0  0  0  0  0  0
   -1.5694    0.5010   -0.6462 C   0  0  0  0  0  0  0  0  0  0  0  0
   -2.5780    1.2341   -1.2656 C   0  0  0  0  0  0  0  0  0  0  0  0
   -2.8050    2.5556   -0.8872 C   0  0  0  0  0  0  0  0  0  0  0  0
   -2.0304    3.1391    0.1242 C   0  0  0  0  0  0  0  0  0  0  0  0
   -1.0463    2.3851    0.8136 C   0  0  0  0  0  0  0  0  0  0  0  0
    2.8754    6.0634   -0.1773 C   0  0  0  0  0  0  0  0  0  0  0  0
    3.5521    5.7342   -1.3505 C   0  0  0  0  0  0  0  0  0  0  0  0
    3.4866    6.8069   -2.6953 Cl  0  0  0  0  0  0  0  0  0  0  0  0
    4.2786    4.5483   -1.4468 C   0  0  0  0  0  0  0  0  0  0  0  0
    6.2139    0.7745   -1.7413 C   0  0  0  0  0  0  0  0  0  0  0  0
    5.2402   -0.1053   -1.4632 F   0  0  0  0  0  0  0  0  0  0  0  0
    7.2832    0.3519   -2.5427 C   0  0  0  0  0  0  0  0  0  0  0  0
    8.3187    1.2477   -2.8344 C   0  0  0  0  0  0  0  0  0  0  0  0
    9.4352    0.8241   -3.6092 C   0  0  0  0  0  0  0  0  0  0  0  0
   10.3480    0.4289   -4.2219 N   0  0  0  0  0  0  0  0  0  0  0  0
    7.1699    3.9844   -1.1748 H   0  0  0  0  0  0  0  0  0  0  0  0
    4.6051    1.6786    0.0603 H   0  0  0  0  0  0  0  0  0  0  0  0
    3.7388    3.3489    1.6838 H   0  0  0  0  0  0  0  0  0  0  0  0
    1.7604    6.5883    2.1168 H   0  0  0  0  0  0  0  0  0  0  0  0
    3.0205    5.7114    2.9825 H   0  0  0  0  0  0  0  0  0  0  0  0
    0.3696    4.5027    0.8685 H   0  0  0  0  0  0  0  0  0  0  0  0
    0.7214    2.1605    3.7075 H   0  0  0  0  0  0  0  0  0  0  0  0
    0.5453   -0.5922    0.6858 H   0  0  0  0  0  0  0  0  0  0  0  0
   -1.4063   -0.5343   -0.9397 H   0  0  0  0  0  0  0  0  0  0  0  0
   -3.1968    0.7667   -2.0277 H   0  0  0  0  0  0  0  0  0  0  0  0
   -3.6009    3.1216   -1.3668 H   0  0  0  0  0  0  0  0  0  0  0  0
   -2.2585    4.1582    0.4291 H   0  0  0  0  0  0  0  0  0  0  0  0
    2.3308    7.0036   -0.1213 H   0  0  0  0  0  0  0  0  0  0  0  0
    4.7787    4.3100   -2.3812 H   0  0  0  0  0  0  0  0  0  0  0  0
    7.2953   -0.6630   -2.9009 H   0  0  0  0  0  0  0  0  0  0  0  0
  1  2  1  0  0  0  0
  2  3  2  0  0  0  0
  2 30  1  0  0  0  0
  3  4  1  0  0  0  0
  3 33  1  0  0  0  0
  4  5  1  0  0  0  0
  4 27  2  0  0  0  0
  5  6  1  0  0  0  0
  5 34  1  0  0  0  0
  6  7  2  0  0  0  0
  6 26  1  0  0  0  0
  7  8  1  0  0  0  0
  7 35  1  0  0  0  0
  8  9  1  0  0  0  0
  8 23  2  0  0  0  0
  9 10  1  0  0  0  0
  9 36  1  0  0  0  0
  9 37  1  0  0  0  0
 10 11  2  0  0  0  0
 10 12  1  0  0  0  0
 12 13  1  0  0  0  0
 12 38  1  0  0  0  0
 13 14  2  0  0  0  0
 13 22  1  0  0  0  0
 14 15  1  0  0  0  0
 14 39  1  0  0  0  0
 15 16  2  0  0  0  0
 16 17  1  0  0  0  0
 16 40  1  0  0  0  0
 17 18  2  0  0  0  0
 17 22  1  0  0  0  0
 18 19  1  0  0  0  0
 18 41  1  0  0  0  0
 19 20  2  0  0  0  0
 19 42  1  0  0  0  0
 20 21  1  0  0  0  0
 20 43  1  0  0  0  0
 21 22  2  0  0  0  0
 21 44  1  0  0  0  0
 23 24  1  0  0  0  0
 23 45  1  0  0  0  0
 24 25  1  0  0  0  0
 24 26  2  0  0  0  0
 26 46  1  0  0  0  0
 27 28  1  0  0  0  0
 27 29  1  0  0  0  0
 29 30  2  0  0  0  0
 29 47  1  0  0  0  0
 30 31  1  0  0  0  0
 31 32  3  0  0  0  0
M  END
$$$$
