
 OpenBabel07202414163D

 42 43  0  0  0  0  0  0  0  0999 V2000
   -5.1678    2.3226   -4.4908 C   0  0  0  0  0  0  0  0  0  0  0  0
   -3.8401    2.9641   -4.7841 C   0  0  0  0  0  0  0  0  0  0  0  0
   -3.3967    2.9681   -6.1182 C   0  0  0  0  0  0  0  0  0  0  0  0
   -2.1875    3.5644   -6.4331 C   0  0  0  0  0  0  0  0  0  0  0  0
   -1.4070    4.1762   -5.5283 N   0  0  0  0  0  0  0  0  0  0  0  0
   -1.8441    4.1642   -4.2436 C   0  0  0  0  0  0  0  0  0  0  0  0
   -3.0308    3.5692   -3.8036 C   0  0  0  0  0  0  0  0  0  0  0  0
   -3.4305    3.5710   -2.4404 N   0  0  0  0  0  0  0  0  0  0  0  0
   -2.6130    3.8588   -1.3599 C   0  0  0  0  0  0  0  0  0  0  0  0
   -1.4060    4.0926   -1.4399 O   0  0  0  0  0  0  0  0  0  0  0  0
   -3.2503    3.8507    0.0246 C   0  0  0  0  0  0  0  0  0  0  0  0
   -4.7421    3.6404    0.0977 C   0  0  0  0  0  0  0  0  0  0  0  0
   -5.6078    4.7412    0.0649 C   0  0  0  0  0  0  0  0  0  0  0  0
   -6.9857    4.5425    0.0790 C   0  0  0  0  0  0  0  0  0  0  0  0
   -8.0437    5.8978    0.0258 Cl  0  0  0  0  0  0  0  0  0  0  0  0
   -7.5158    3.2535    0.1155 C   0  0  0  0  0  0  0  0  0  0  0  0
   -6.6677    2.1385    0.1496 C   0  0  0  0  0  0  0  0  0  0  0  0
   -7.2404    0.7398    0.1356 C   0  0  0  0  0  0  0  0  0  0  0  0
   -6.8385   -0.0300    1.3105 N   0  0  0  0  0  0  0  0  0  0  0  0
   -7.4151   -1.5995    1.4396 S   0  0  0  0  0  0  0  0  0  0  0  0
   -9.0744   -1.3526    2.0372 C   0  0  0  0  0  0  0  0  0  0  0  0
   -7.4863   -2.1627    0.1052 O   0  0  0  0  0  0  0  0  0  0  0  0
   -6.6572   -2.2285    2.4994 O   0  0  0  0  0  0  0  0  0  0  0  0
   -5.2783    2.3432    0.1514 C   0  0  0  0  0  0  0  0  0  0  0  0
   -5.4842    1.6751   -5.3178 H   0  0  0  0  0  0  0  0  0  0  0  0
   -5.9353    3.0907   -4.3536 H   0  0  0  0  0  0  0  0  0  0  0  0
   -5.1171    1.6880   -3.6015 H   0  0  0  0  0  0  0  0  0  0  0  0
   -3.9773    2.5033   -6.9092 H   0  0  0  0  0  0  0  0  0  0  0  0
   -1.8074    3.5677   -7.4504 H   0  0  0  0  0  0  0  0  0  0  0  0
   -1.1816    4.7001   -3.5721 H   0  0  0  0  0  0  0  0  0  0  0  0
   -4.3636    3.2346   -2.2457 H   0  0  0  0  0  0  0  0  0  0  0  0
   -3.0046    4.8124    0.4949 H   0  0  0  0  0  0  0  0  0  0  0  0
   -2.7460    3.0787    0.6191 H   0  0  0  0  0  0  0  0  0  0  0  0
   -5.2084    5.7534    0.0249 H   0  0  0  0  0  0  0  0  0  0  0  0
   -8.5955    3.1231    0.1068 H   0  0  0  0  0  0  0  0  0  0  0  0
   -6.8873    0.2441   -0.7761 H   0  0  0  0  0  0  0  0  0  0  0  0
   -8.3333    0.7939    0.0873 H   0  0  0  0  0  0  0  0  0  0  0  0
   -6.7958    0.4685    2.1988 H   0  0  0  0  0  0  0  0  0  0  0  0
   -9.6528   -0.7959    1.3008 H   0  0  0  0  0  0  0  0  0  0  0  0
   -9.0268   -0.8201    2.9892 H   0  0  0  0  0  0  0  0  0  0  0  0
   -9.5233   -2.3374    2.1914 H   0  0  0  0  0  0  0  0  0  0  0  0
   -4.6103    1.4803    0.1825 H   0  0  0  0  0  0  0  0  0  0  0  0
  1  2  1  0  0  0  0
  1 25  1  0  0  0  0
  1 26  1  0  0  0  0
  1 27  1  0  0  0  0
  2  3  1  0  0  0  0
  2  7  2  0  0  0  0
  3  4  2  0  0  0  0
  3 28  1  0  0  0  0
  4  5  1  0  0  0  0
  4 29  1  0  0  0  0
  5  6  2  0  0  0  0
  6  7  1  0  0  0  0
  6 30  1  0  0  0  0
  7  8  1  0  0  0  0
  8  9  1  0  0  0  0
  8 31  1  0  0  0  0
  9 10  2  0  0  0  0
  9 11  1  0  0  0  0
 11 12  1  0  0  0  0
 11 32  1  0  0  0  0
 11 33  1  0  0  0  0
 12 13  1  0  0  0  0
 12 24  2  0  0  0  0
 13 14  2  0  0  0  0
 13 34  1  0  0  0  0
 14 15  1  0  0  0  0
 14 16  1  0  0  0  0
 16 17  2  0  0  0  0
 16 35  1  0  0  0  0
 17 18  1  0  0  0  0
 17 24  1  0  0  0  0
 18 19  1  0  0  0  0
 18 36  1  0  0  0  0
 18 37  1  0  0  0  0
 19 20  1  0  0  0  0
 19 38  1  0  0  0  0
 20 21  1  0  0  0  0
 20 22  2  0  0  0  0
 20 23  2  0  0  0  0
 21 39  1  0  0  0  0
 21 40  1  0  0  0  0
 21 41  1  0  0  0  0
 24 42  1  0  0  0  0
M  END
$$$$
