
 OpenBabel07202414183D

 49 52  0  0  0  0  0  0  0  0999 V2000
   -1.7503   -1.1196    3.0897 F   0  0  0  0  0  0  0  0  0  0  0  0
   -1.3683   -0.3735    2.0398 C   0  0  0  0  0  0  0  0  0  0  0  0
   -1.5672    1.0080    2.0410 C   0  0  0  0  0  0  0  0  0  0  0  0
   -2.3205    1.7308    3.4223 Cl  0  0  0  0  0  0  0  0  0  0  0  0
   -1.1538    1.7857    0.9403 C   0  0  0  0  0  0  0  0  0  0  0  0
   -1.3455    3.2872    0.9715 C   0  0  0  0  0  0  0  0  0  0  0  0
   -0.8142    3.9565   -0.2207 N   0  0  0  0  0  0  0  0  0  0  0  0
   -0.4955    5.3190   -0.0726 C   0  0  0  0  0  0  0  0  0  0  0  0
    0.4685    5.8680   -0.9235 C   0  0  0  0  0  0  0  0  0  0  0  0
    0.7787    7.2256   -0.8578 C   0  0  0  0  0  0  0  0  0  0  0  0
    1.9919    7.8769   -1.8906 Cl  0  0  0  0  0  0  0  0  0  0  0  0
    0.1070    8.0667    0.0289 C   0  0  0  0  0  0  0  0  0  0  0  0
   -0.8915    7.5480    0.8597 C   0  0  0  0  0  0  0  0  0  0  0  0
   -1.6994    8.4474    1.7633 C   0  0  0  0  0  0  0  0  0  0  0  0
   -1.7021    8.0590    3.2321 C   0  0  0  0  0  0  0  0  0  0  0  0
   -2.7464    8.0820    3.8810 O   0  0  0  0  0  0  0  0  0  0  0  0
   -0.4558    7.8013    3.7750 N   0  0  0  0  0  0  0  0  0  0  0  0
   -0.2683    7.4638    5.1354 C   0  0  0  0  0  0  0  0  0  0  0  0
   -1.1284    6.5698    5.7823 C   0  0  0  0  0  0  0  0  0  0  0  0
   -0.9884    6.1638    7.0659 N   0  0  0  0  0  0  0  0  0  0  0  0
    0.0452    6.6986    7.7510 C   0  0  0  0  0  0  0  0  0  0  0  0
    0.9574    7.6191    7.2294 C   0  0  0  0  0  0  0  0  0  0  0  0
    1.9771    8.1740    8.0162 C   0  0  0  0  0  0  0  0  0  0  0  0
    2.8426    9.1334    7.4931 C   0  0  0  0  0  0  0  0  0  0  0  0
    2.7019    9.5400    6.1746 C   0  0  0  0  0  0  0  0  0  0  0  0
    1.7035    8.9872    5.3734 C   0  0  0  0  0  0  0  0  0  0  0  0
    0.8063    8.0086    5.8759 C   0  0  0  0  0  0  0  0  0  0  0  0
   -1.1906    6.1781    0.7887 C   0  0  0  0  0  0  0  0  0  0  0  0
   -0.5456    1.1260   -0.1448 C   0  0  0  0  0  0  0  0  0  0  0  0
   -0.3589   -0.2592   -0.1360 C   0  0  0  0  0  0  0  0  0  0  0  0
   -0.7695   -1.0106    0.9594 C   0  0  0  0  0  0  0  0  0  0  0  0
   -0.8249    3.6621    1.8626 H   0  0  0  0  0  0  0  0  0  0  0  0
   -2.4175    3.5051    1.0531 H   0  0  0  0  0  0  0  0  0  0  0  0
   -1.4750    3.8633   -0.9932 H   0  0  0  0  0  0  0  0  0  0  0  0
    0.9927    5.2240   -1.6253 H   0  0  0  0  0  0  0  0  0  0  0  0
    0.3463    9.1273    0.0471 H   0  0  0  0  0  0  0  0  0  0  0  0
   -2.7387    8.4168    1.4108 H   0  0  0  0  0  0  0  0  0  0  0  0
   -1.3655    9.4883    1.6867 H   0  0  0  0  0  0  0  0  0  0  0  0
    0.3519    8.1169    3.2545 H   0  0  0  0  0  0  0  0  0  0  0  0
   -1.9616    6.1078    5.2611 H   0  0  0  0  0  0  0  0  0  0  0  0
    0.1096    6.3631    8.7827 H   0  0  0  0  0  0  0  0  0  0  0  0
    2.0889    7.8796    9.0617 H   0  0  0  0  0  0  0  0  0  0  0  0
    3.6149    9.5712    8.1192 H   0  0  0  0  0  0  0  0  0  0  0  0
    3.3565   10.3080    5.7665 H   0  0  0  0  0  0  0  0  0  0  0  0
    1.6058    9.3638    4.3603 H   0  0  0  0  0  0  0  0  0  0  0  0
   -1.9942    5.7924    1.4130 H   0  0  0  0  0  0  0  0  0  0  0  0
   -0.1944    1.6896   -1.0078 H   0  0  0  0  0  0  0  0  0  0  0  0
    0.1170   -0.7479   -0.9843 H   0  0  0  0  0  0  0  0  0  0  0  0
   -0.6242   -2.0861    0.9841 H   0  0  0  0  0  0  0  0  0  0  0  0
  1  2  1  0  0  0  0
  2  3  2  0  0  0  0
  2 31  1  0  0  0  0
  3  4  1  0  0  0  0
  3  5  1  0  0  0  0
  5  6  1  0  0  0  0
  5 29  2  0  0  0  0
  6  7  1  0  0  0  0
  6 32  1  0  0  0  0
  6 33  1  0  0  0  0
  7  8  1  0  0  0  0
  7 34  1  0  0  0  0
  8  9  2  0  0  0  0
  8 28  1  0  0  0  0
  9 10  1  0  0  0  0
  9 35  1  0  0  0  0
 10 11  1  0  0  0  0
 10 12  2  0  0  0  0
 12 13  1  0  0  0  0
 12 36  1  0  0  0  0
 13 14  1  0  0  0  0
 13 28  2  0  0  0  0
 14 15  1  0  0  0  0
 14 37  1  0  0  0  0
 14 38  1  0  0  0  0
 15 16  2  0  0  0  0
 15 17  1  0  0  0  0
 17 18  1  0  0  0  0
 17 39  1  0  0  0  0
 18 19  2  0  0  0  0
 18 27  1  0  0  0  0
 19 20  1  0  0  0  0
 19 40  1  0  0  0  0
 20 21  2  0  0  0  0
 21 22  1  0  0  0  0
 21 41  1  0  0  0  0
 22 23  2  0  0  0  0
 22 27  1  0  0  0  0
 23 24  1  0  0  0  0
 23 42  1  0  0  0  0
 24 25  2  0  0  0  0
 24 43  1  0  0  0  0
 25 26  1  0  0  0  0
 25 44  1  0  0  0  0
 26 27  2  0  0  0  0
 26 45  1  0  0  0  0
 28 46  1  0  0  0  0
 29 30  1  0  0  0  0
 29 47  1  0  0  0  0
 30 31  2  0  0  0  0
 30 48  1  0  0  0  0
 31 49  1  0  0  0  0
M  END
$$$$
