
 OpenBabel07202414143D

 43 46  0  0  1  0  0  0  0  0999 V2000
    1.3438   -0.9351    0.4260 C   0  0  0  0  0  0  0  0  0  0  0  0
    2.0821    0.2127    0.0342 O   0  0  0  0  0  0  0  0  0  0  0  0
    2.5363    0.2873   -1.3212 C   0  0  3  0  0  0  0  0  0  0  0  0
    3.2917   -0.9809   -1.7954 C   0  0  0  0  0  0  0  0  0  0  0  0
    4.5857   -1.1343   -1.0275 C   0  0  0  0  0  0  0  0  0  0  0  0
    5.4892   -0.0794   -1.3459 O   0  0  0  0  0  0  0  0  0  0  0  0
    4.9386    1.1743   -1.3350 C   0  0  0  0  0  0  0  0  0  0  0  0
    3.5592    1.4351   -1.3117 C   0  0  0  0  0  0  0  0  0  0  0  0
    3.1500    2.7838   -1.2539 C   0  0  0  0  0  0  0  0  0  0  0  0
    4.0833    3.8269   -1.2895 C   0  0  0  0  0  0  0  0  0  0  0  0
    5.4480    3.5445   -1.3642 C   0  0  0  0  0  0  0  0  0  0  0  0
    5.8708    2.2145   -1.3791 C   0  0  0  0  0  0  0  0  0  0  0  0
    6.6543    4.7755   -1.4341 Cl  0  0  0  0  0  0  0  0  0  0  0  0
    3.4747    5.4453   -1.2573 Cl  0  0  0  0  0  0  0  0  0  0  0  0
    1.4136    0.5695   -2.3908 C   0  0  0  0  0  0  0  0  0  0  0  0
    1.5516    0.1776   -3.5546 O   0  0  0  0  0  0  0  0  0  0  0  0
    0.2987    1.2823   -1.9491 N   0  0  0  0  0  0  0  0  0  0  0  0
   -0.7933    1.6570   -2.7989 C   0  0  0  0  0  0  0  0  0  0  0  0
   -0.6456    1.7222   -4.1905 C   0  0  0  0  0  0  0  0  0  0  0  0
   -1.6500    1.9023   -5.0786 N   0  0  0  0  0  0  0  0  0  0  0  0
   -2.8850    2.0169   -4.5618 C   0  0  0  0  0  0  0  0  0  0  0  0
   -3.1648    2.0522   -3.1994 C   0  0  0  0  0  0  0  0  0  0  0  0
   -2.0914    1.9306   -2.2772 C   0  0  0  0  0  0  0  0  0  0  0  0
   -2.4194    2.0811   -0.9057 C   0  0  0  0  0  0  0  0  0  0  0  0
   -3.7401    2.2805   -0.4810 C   0  0  0  0  0  0  0  0  0  0  0  0
   -4.7792    2.3122   -1.4044 C   0  0  0  0  0  0  0  0  0  0  0  0
   -4.4910    2.2052   -2.7598 C   0  0  0  0  0  0  0  0  0  0  0  0
    1.2939   -0.9375    1.5199 H   0  0  0  0  0  0  0  0  0  0  0  0
    1.8179   -1.8746    0.1364 H   0  0  0  0  0  0  0  0  0  0  0  0
    0.3247   -0.8851    0.0374 H   0  0  0  0  0  0  0  0  0  0  0  0
    3.5499   -0.8975   -2.8606 H   0  0  0  0  0  0  0  0  0  0  0  0
    2.6805   -1.8833   -1.7037 H   0  0  0  0  0  0  0  0  0  0  0  0
    5.0733   -2.0700   -1.3226 H   0  0  0  0  0  0  0  0  0  0  0  0
    4.4358   -1.1758    0.0572 H   0  0  0  0  0  0  0  0  0  0  0  0
    2.0961    3.0353   -1.1864 H   0  0  0  0  0  0  0  0  0  0  0  0
    6.9323    1.9769   -1.4244 H   0  0  0  0  0  0  0  0  0  0  0  0
    0.1716    1.3363   -0.9450 H   0  0  0  0  0  0  0  0  0  0  0  0
    0.3240    1.6476   -4.6719 H   0  0  0  0  0  0  0  0  0  0  0  0
   -3.6715    2.1026   -5.3078 H   0  0  0  0  0  0  0  0  0  0  0  0
   -1.6452    2.0820   -0.1450 H   0  0  0  0  0  0  0  0  0  0  0  0
   -3.9601    2.4100    0.5756 H   0  0  0  0  0  0  0  0  0  0  0  0
   -5.8070    2.4385   -1.0739 H   0  0  0  0  0  0  0  0  0  0  0  0
   -5.3092    2.2473   -3.4761 H   0  0  0  0  0  0  0  0  0  0  0  0
  1  2  1  0  0  0  0
  1 28  1  0  0  0  0
  1 29  1  0  0  0  0
  1 30  1  0  0  0  0
  2  3  1  0  0  0  0
  3  4  1  0  0  0  0
  3  8  1  0  0  0  0
  3 15  1  0  0  0  0
  4  5  1  0  0  0  0
  4 31  1  0  0  0  0
  4 32  1  0  0  0  0
  5  6  1  0  0  0  0
  5 33  1  0  0  0  0
  5 34  1  0  0  0  0
  6  7  1  0  0  0  0
  7  8  1  0  0  0  0
  7 12  2  0  0  0  0
  8  9  2  0  0  0  0
  9 10  1  0  0  0  0
  9 35  1  0  0  0  0
 10 11  2  0  0  0  0
 10 14  1  0  0  0  0
 11 12  1  0  0  0  0
 11 13  1  0  0  0  0
 12 36  1  0  0  0  0
 15 16  2  0  0  0  0
 15 17  1  0  0  0  0
 17 18  1  0  0  0  0
 17 37  1  0  0  0  0
 18 19  1  0  0  0  0
 18 23  2  0  0  0  0
 19 20  2  0  0  0  0
 19 38  1  0  0  0  0
 20 21  1  0  0  0  0
 21 22  2  0  0  0  0
 21 39  1  0  0  0  0
 22 23  1  0  0  0  0
 22 27  1  0  0  0  0
 23 24  1  0  0  0  0
 24 25  2  0  0  0  0
 24 40  1  0  0  0  0
 25 26  1  0  0  0  0
 25 41  1  0  0  0  0
 26 27  2  0  0  0  0
 26 42  1  0  0  0  0
 27 43  1  0  0  0  0
M  END
$$$$
