
 OpenBabel07202414153D

 62 66  0  0  1  0  0  0  0  0999 V2000
   10.6960    0.1565  -12.4911 C   0  0  0  0  0  0  0  0  0  0  0  0
   11.9440   -0.4315  -11.3733 S   0  0  0  0  0  0  0  0  0  0  0  0
   11.4159   -1.5519  -10.6282 O   0  0  0  0  0  0  0  0  0  0  0  0
   13.1861   -0.5378  -12.1095 O   0  0  0  0  0  0  0  0  0  0  0  0
   12.1306    0.9255  -10.3583 N   0  0  0  0  0  0  0  0  0  0  0  0
   11.3827    0.8920   -9.1443 C   0  0  0  0  0  0  0  0  0  0  0  0
   11.8184    0.0996   -8.0982 C   0  0  0  0  0  0  0  0  0  0  0  0
   11.0096   -0.0674   -6.9751 C   0  0  0  0  0  0  0  0  0  0  0  0
    9.7965    0.6305   -6.7891 C   0  0  0  0  0  0  0  0  0  0  0  0
    8.9557    0.5631   -5.6403 C   0  0  0  0  0  0  0  0  0  0  0  0
    9.2014   -0.1159   -4.4078 N   0  0  0  0  0  0  0  0  0  0  0  0
   10.4116   -0.4533   -3.8143 C   0  0  0  0  0  0  0  0  0  0  0  0
   11.5261   -0.1931   -4.2528 O   0  0  0  0  0  0  0  0  0  0  0  0
   10.2438   -1.1621   -2.4618 C   0  0  1  0  0  0  0  0  0  0  0  0
   10.0655   -2.6688   -2.7129 C   0  0  0  0  0  0  0  0  0  0  0  0
    9.8396   -3.3538   -1.4044 N   0  0  0  0  0  0  0  0  0  0  0  0
    9.1068   -4.9128   -1.4769 S   0  0  0  0  0  0  0  0  0  0  0  0
    8.3413   -4.9556   -2.6995 O   0  0  0  0  0  0  0  0  0  0  0  0
   10.1207   -5.8936   -1.1696 O   0  0  0  0  0  0  0  0  0  0  0  0
    7.9738   -4.7942   -0.0979 C   0  0  0  0  0  0  0  0  0  0  0  0
    7.0966   -6.0273   -0.0383 C   0  0  0  0  0  0  0  0  0  0  0  0
    6.2519   -6.2856   -1.1871 C   0  0  0  0  0  0  0  0  0  0  0  0
    5.5315   -6.5218   -2.0641 N   0  0  0  0  0  0  0  0  0  0  0  0
    7.4021   -7.2311    0.8522 C   0  0  0  0  0  0  0  0  0  0  0  0
    6.4243   -6.2031    1.3237 C   0  0  0  0  0  0  0  0  0  0  0  0
   11.0219   -3.2571   -0.5120 C   0  0  0  0  0  0  0  0  0  0  0  0
   11.6839   -1.8901   -0.5030 C   0  0  0  0  0  0  0  0  0  0  0  0
   12.6875   -1.6297    0.4475 C   0  0  0  0  0  0  0  0  0  0  0  0
   13.3587   -0.4052    0.4639 C   0  0  0  0  0  0  0  0  0  0  0  0
   13.0341    0.5705   -0.4702 C   0  0  0  0  0  0  0  0  0  0  0  0
   13.8615    2.0793   -0.4586 Cl  0  0  0  0  0  0  0  0  0  0  0  0
   12.0379    0.3342   -1.4146 C   0  0  0  0  0  0  0  0  0  0  0  0
   11.3645   -0.9021   -1.4585 C   0  0  0  0  0  0  0  0  0  0  0  0
    7.7255    1.2323   -5.7187 C   0  0  0  0  0  0  0  0  0  0  0  0
    7.2943    1.9718   -6.7628 N   0  0  0  0  0  0  0  0  0  0  0  0
    8.1290    2.0519   -7.8161 C   0  0  0  0  0  0  0  0  0  0  0  0
    9.3664    1.4200   -7.8928 C   0  0  0  0  0  0  0  0  0  0  0  0
   10.1536    1.5338   -9.0599 C   0  0  0  0  0  0  0  0  0  0  0  0
   10.4588   -0.6555  -13.1812 H   0  0  0  0  0  0  0  0  0  0  0  0
   11.0874    1.0150  -13.0392 H   0  0  0  0  0  0  0  0  0  0  0  0
    9.8046    0.4240  -11.9213 H   0  0  0  0  0  0  0  0  0  0  0  0
   13.1347    1.0701  -10.2223 H   0  0  0  0  0  0  0  0  0  0  0  0
   12.7528   -0.4519   -8.1621 H   0  0  0  0  0  0  0  0  0  0  0  0
   11.3500   -0.8077   -6.2632 H   0  0  0  0  0  0  0  0  0  0  0  0
    8.3958   -0.1616   -3.7939 H   0  0  0  0  0  0  0  0  0  0  0  0
    9.3347   -0.7718   -1.9827 H   0  0  0  0  0  0  0  0  0  0  0  0
   10.9426   -3.1051   -3.2067 H   0  0  0  0  0  0  0  0  0  0  0  0
    9.2037   -2.8078   -3.3736 H   0  0  0  0  0  0  0  0  0  0  0  0
    7.3566   -3.9045   -0.2529 H   0  0  0  0  0  0  0  0  0  0  0  0
    8.5729   -4.6784    0.8100 H   0  0  0  0  0  0  0  0  0  0  0  0
    8.3632   -7.3011    1.3469 H   0  0  0  0  0  0  0  0  0  0  0  0
    6.9843   -8.2042    0.5972 H   0  0  0  0  0  0  0  0  0  0  0  0
    6.7335   -5.5787    2.1569 H   0  0  0  0  0  0  0  0  0  0  0  0
    5.3662   -6.4464    1.3473 H   0  0  0  0  0  0  0  0  0  0  0  0
   11.7784   -3.9831   -0.8318 H   0  0  0  0  0  0  0  0  0  0  0  0
   10.7050   -3.4904    0.5109 H   0  0  0  0  0  0  0  0  0  0  0  0
   12.9611   -2.3860    1.1810 H   0  0  0  0  0  0  0  0  0  0  0  0
   14.1345   -0.2199    1.2019 H   0  0  0  0  0  0  0  0  0  0  0  0
   11.8128    1.1175   -2.1364 H   0  0  0  0  0  0  0  0  0  0  0  0
    7.0223    1.2180   -4.8897 H   0  0  0  0  0  0  0  0  0  0  0  0
    7.7479    2.6557   -8.6392 H   0  0  0  0  0  0  0  0  0  0  0  0
    9.8016    2.1258   -9.9032 H   0  0  0  0  0  0  0  0  0  0  0  0
  1  2  1  0  0  0  0
  1 39  1  0  0  0  0
  1 40  1  0  0  0  0
  1 41  1  0  0  0  0
  2  3  2  0  0  0  0
  2  4  2  0  0  0  0
  2  5  1  0  0  0  0
  5  6  1  0  0  0  0
  5 42  1  0  0  0  0
  6  7  1  0  0  0  0
  6 38  2  0  0  0  0
  7  8  2  0  0  0  0
  7 43  1  0  0  0  0
  8  9  1  0  0  0  0
  8 44  1  0  0  0  0
  9 10  1  0  0  0  0
  9 37  2  0  0  0  0
 10 11  1  0  0  0  0
 10 34  2  0  0  0  0
 11 12  1  0  0  0  0
 11 45  1  0  0  0  0
 12 13  2  0  0  0  0
 14 15  1  0  0  0  0
 14 33  1  0  0  0  0
 14 12  1  0  0  0  0
 14 46  1  1  0  0  0
 15 16  1  0  0  0  0
 15 47  1  0  0  0  0
 15 48  1  0  0  0  0
 16 17  1  0  0  0  0
 16 26  1  0  0  0  0
 17 18  2  0  0  0  0
 17 19  2  0  0  0  0
 17 20  1  0  0  0  0
 20 21  1  0  0  0  0
 20 49  1  0  0  0  0
 20 50  1  0  0  0  0
 21 22  1  0  0  0  0
 21 24  1  0  0  0  0
 21 25  1  0  0  0  0
 22 23  3  0  0  0  0
 24 25  1  0  0  0  0
 24 51  1  0  0  0  0
 24 52  1  0  0  0  0
 25 53  1  0  0  0  0
 25 54  1  0  0  0  0
 26 27  1  0  0  0  0
 26 55  1  0  0  0  0
 26 56  1  0  0  0  0
 27 28  1  0  0  0  0
 27 33  2  0  0  0  0
 28 29  2  0  0  0  0
 28 57  1  0  0  0  0
 29 30  1  0  0  0  0
 29 58  1  0  0  0  0
 30 31  1  0  0  0  0
 30 32  2  0  0  0  0
 32 33  1  0  0  0  0
 32 59  1  0  0  0  0
 34 35  1  0  0  0  0
 34 60  1  0  0  0  0
 35 36  2  0  0  0  0
 36 37  1  0  0  0  0
 36 61  1  0  0  0  0
 37 38  1  0  0  0  0
 38 62  1  0  0  0  0
M  END
$$$$
