
 OpenBabel07202414183D

 49 52  0  0  0  0  0  0  0  0999 V2000
    4.1741   -1.8393   10.3648 F   0  0  0  0  0  0  0  0  0  0  0  0
    4.4156   -2.2933    9.1100 C   0  0  0  0  0  0  0  0  0  0  0  0
    5.7467   -2.5981    9.0851 F   0  0  0  0  0  0  0  0  0  0  0  0
    3.7740   -3.4965    9.0291 F   0  0  0  0  0  0  0  0  0  0  0  0
    4.0343   -1.3838    7.9707 C   0  0  0  0  0  0  0  0  0  0  0  0
    3.4609   -0.1148    8.0876 C   0  0  0  0  0  0  0  0  0  0  0  0
    3.0458    0.7085    9.7452 Br  0  0  0  0  0  0  0  0  0  0  0  0
    3.1547    0.6277    6.9373 C   0  0  0  0  0  0  0  0  0  0  0  0
    3.4066    0.1124    5.6636 C   0  0  0  0  0  0  0  0  0  0  0  0
    3.9570   -1.1585    5.5146 C   0  0  0  0  0  0  0  0  0  0  0  0
    4.1458   -1.6901    4.2249 N   0  0  0  0  0  0  0  0  0  0  0  0
    4.0542   -3.0311    3.8075 C   0  0  0  0  0  0  0  0  0  0  0  0
    4.7954   -3.4813    2.7119 C   0  0  0  0  0  0  0  0  0  0  0  0
    4.7271   -4.8195    2.3183 C   0  0  0  0  0  0  0  0  0  0  0  0
    5.6594   -5.3608    0.9772 Cl  0  0  0  0  0  0  0  0  0  0  0  0
    3.9229   -5.7289    3.0066 C   0  0  0  0  0  0  0  0  0  0  0  0
    3.1568   -5.2970    4.0934 C   0  0  0  0  0  0  0  0  0  0  0  0
    2.3252   -6.2674    4.8982 C   0  0  0  0  0  0  0  0  0  0  0  0
    0.8672   -5.8749    5.0679 C   0  0  0  0  0  0  0  0  0  0  0  0
    0.3206   -5.9500    6.1670 O   0  0  0  0  0  0  0  0  0  0  0  0
    0.2231   -5.5459    3.8918 N   0  0  0  0  0  0  0  0  0  0  0  0
   -1.1370   -5.1628    3.8208 C   0  0  0  0  0  0  0  0  0  0  0  0
   -1.7257   -4.3777    4.8167 C   0  0  0  0  0  0  0  0  0  0  0  0
   -2.9998   -3.9318    4.7868 N   0  0  0  0  0  0  0  0  0  0  0  0
   -3.7421   -4.3115    3.7216 C   0  0  0  0  0  0  0  0  0  0  0  0
   -3.2762   -5.1167    2.6765 C   0  0  0  0  0  0  0  0  0  0  0  0
   -4.1255   -5.5085    1.6251 C   0  0  0  0  0  0  0  0  0  0  0  0
   -3.6593   -6.3508    0.6172 C   0  0  0  0  0  0  0  0  0  0  0  0
   -2.3469   -6.8010    0.6433 C   0  0  0  0  0  0  0  0  0  0  0  0
   -1.4931   -6.4052    1.6777 C   0  0  0  0  0  0  0  0  0  0  0  0
   -1.9348   -5.5479    2.7133 C   0  0  0  0  0  0  0  0  0  0  0  0
    3.2225   -3.9478    4.4700 C   0  0  0  0  0  0  0  0  0  0  0  0
    4.2785   -1.8805    6.6702 C   0  0  0  0  0  0  0  0  0  0  0  0
    2.6996    1.6129    7.0217 H   0  0  0  0  0  0  0  0  0  0  0  0
    3.1308    0.6967    4.7893 H   0  0  0  0  0  0  0  0  0  0  0  0
    4.6997   -1.0861    3.6268 H   0  0  0  0  0  0  0  0  0  0  0  0
    5.4438   -2.7976    2.1705 H   0  0  0  0  0  0  0  0  0  0  0  0
    3.9090   -6.7724    2.7005 H   0  0  0  0  0  0  0  0  0  0  0  0
    2.7747   -6.3418    5.8977 H   0  0  0  0  0  0  0  0  0  0  0  0
    2.3525   -7.2700    4.4567 H   0  0  0  0  0  0  0  0  0  0  0  0
    0.6884   -5.7790    3.0259 H   0  0  0  0  0  0  0  0  0  0  0  0
   -1.1626   -4.0385    5.6789 H   0  0  0  0  0  0  0  0  0  0  0  0
   -4.7679   -3.9506    3.7426 H   0  0  0  0  0  0  0  0  0  0  0  0
   -5.1600   -5.1777    1.5987 H   0  0  0  0  0  0  0  0  0  0  0  0
   -4.3273   -6.6633   -0.1810 H   0  0  0  0  0  0  0  0  0  0  0  0
   -1.9871   -7.4797   -0.1294 H   0  0  0  0  0  0  0  0  0  0  0  0
   -0.4878   -6.8125    1.6706 H   0  0  0  0  0  0  0  0  0  0  0  0
    2.6093   -3.6041    5.3035 H   0  0  0  0  0  0  0  0  0  0  0  0
    4.7430   -2.8618    6.5688 H   0  0  0  0  0  0  0  0  0  0  0  0
  1  2  1  0  0  0  0
  2  3  1  0  0  0  0
  2  4  1  0  0  0  0
  2  5  1  0  0  0  0
  5  6  2  0  0  0  0
  5 33  1  0  0  0  0
  6  7  1  0  0  0  0
  6  8  1  0  0  0  0
  8  9  2  0  0  0  0
  8 34  1  0  0  0  0
  9 10  1  0  0  0  0
  9 35  1  0  0  0  0
 10 11  1  0  0  0  0
 10 33  2  0  0  0  0
 11 12  1  0  0  0  0
 11 36  1  0  0  0  0
 12 13  2  0  0  0  0
 12 32  1  0  0  0  0
 13 14  1  0  0  0  0
 13 37  1  0  0  0  0
 14 15  1  0  0  0  0
 14 16  2  0  0  0  0
 16 17  1  0  0  0  0
 16 38  1  0  0  0  0
 17 18  1  0  0  0  0
 17 32  2  0  0  0  0
 18 19  1  0  0  0  0
 18 39  1  0  0  0  0
 18 40  1  0  0  0  0
 19 20  2  0  0  0  0
 19 21  1  0  0  0  0
 21 22  1  0  0  0  0
 21 41  1  0  0  0  0
 22 23  2  0  0  0  0
 22 31  1  0  0  0  0
 23 24  1  0  0  0  0
 23 42  1  0  0  0  0
 24 25  2  0  0  0  0
 25 26  1  0  0  0  0
 25 43  1  0  0  0  0
 26 27  2  0  0  0  0
 26 31  1  0  0  0  0
 27 28  1  0  0  0  0
 27 44  1  0  0  0  0
 28 29  2  0  0  0  0
 28 45  1  0  0  0  0
 29 30  1  0  0  0  0
 29 46  1  0  0  0  0
 30 31  2  0  0  0  0
 30 47  1  0  0  0  0
 32 48  1  0  0  0  0
 33 49  1  0  0  0  0
M  END
$$$$
