
 OpenBabel07202414123D

 61 63  0  0  1  0  0  0  0  0999 V2000
    3.0570    0.0551   -1.4046 C   0  0  0  0  0  0  0  0  0  0  0  0
    2.5307   -0.0853    0.0458 C   0  0  0  0  0  0  0  0  0  0  0  0
    1.0143   -0.3517   -0.0090 C   0  0  0  0  0  0  0  0  0  0  0  0
    3.2045   -1.3382    0.6518 C   0  0  0  0  0  0  0  0  0  0  0  0
    2.7949    1.1947    0.8573 C   0  0  0  0  0  0  0  0  0  0  0  0
    2.9105    2.4351    0.2253 C   0  0  0  0  0  0  0  0  0  0  0  0
    3.1978    3.6066    0.9328 C   0  0  0  0  0  0  0  0  0  0  0  0
    3.3307    3.6348    2.3244 C   0  0  0  0  0  0  0  0  0  0  0  0
    3.1187    2.4069    2.9680 C   0  0  0  0  0  0  0  0  0  0  0  0
    2.8922    1.2099    2.2530 C   0  0  0  0  0  0  0  0  0  0  0  0
    3.7541    4.8467    3.0289 N   0  0  0  0  0  0  0  0  0  0  0  0
    4.2730    4.7230    4.4368 C   0  0  3  0  0  0  0  0  0  0  0  0
    3.1659    4.7407    5.5016 C   0  0  0  0  0  0  0  0  0  0  0  0
    2.3097    5.8406    5.6714 C   0  0  0  0  0  0  0  0  0  0  0  0
    1.3572    5.8510    6.6915 C   0  0  0  0  0  0  0  0  0  0  0  0
    1.2828    4.7555    7.5300 C   0  0  0  0  0  0  0  0  0  0  0  0
    2.0705    3.6730    7.4036 N   0  0  0  0  0  0  0  0  0  0  0  0
    2.9862    3.6938    6.4048 C   0  0  0  0  0  0  0  0  0  0  0  0
    5.4530    3.7133    4.7585 C   0  0  0  0  0  0  0  0  0  0  0  0
    5.8794    3.5918    5.9056 O   0  0  0  0  0  0  0  0  0  0  0  0
    6.0018    2.9986    3.7251 N   0  0  0  0  0  0  0  0  0  0  0  0
    7.0100    1.9760    3.9545 C   0  0  0  0  0  0  0  0  0  0  0  0
    8.3969    2.4934    3.6841 C   0  0  0  0  0  0  0  0  0  0  0  0
    9.1580    3.0503    4.7216 C   0  0  0  0  0  0  0  0  0  0  0  0
   10.4489    3.5210    4.4789 C   0  0  0  0  0  0  0  0  0  0  0  0
   10.9864    3.4508    3.1953 C   0  0  0  0  0  0  0  0  0  0  0  0
   10.2320    2.9147    2.1528 C   0  0  0  0  0  0  0  0  0  0  0  0
    8.9418    2.4395    2.3943 C   0  0  0  0  0  0  0  0  0  0  0  0
    3.5885    6.1054    2.3935 C   0  0  0  0  0  0  0  0  0  0  0  0
    3.0627    6.2861    1.2978 O   0  0  0  0  0  0  0  0  0  0  0  0
    4.0165    7.3551    3.1048 C   0  0  0  0  0  0  0  0  0  0  0  0
    3.4109    8.5134    2.7982 C   0  0  0  0  0  0  0  0  0  0  0  0
    2.8804   -0.8496   -1.9921 H   0  0  0  0  0  0  0  0  0  0  0  0
    4.1349    0.2632   -1.4127 H   0  0  0  0  0  0  0  0  0  0  0  0
    2.5578    0.8654   -1.9484 H   0  0  0  0  0  0  0  0  0  0  0  0
    0.7996   -1.2711   -0.5694 H   0  0  0  0  0  0  0  0  0  0  0  0
    0.4771    0.4660   -0.5001 H   0  0  0  0  0  0  0  0  0  0  0  0
    0.5911   -0.4749    0.9946 H   0  0  0  0  0  0  0  0  0  0  0  0
    2.9714   -2.2307    0.0569 H   0  0  0  0  0  0  0  0  0  0  0  0
    2.8561   -1.5486    1.6684 H   0  0  0  0  0  0  0  0  0  0  0  0
    4.2945   -1.2361    0.6827 H   0  0  0  0  0  0  0  0  0  0  0  0
    2.8029    2.5489   -0.8493 H   0  0  0  0  0  0  0  0  0  0  0  0
    3.3426    4.4791    0.3056 H   0  0  0  0  0  0  0  0  0  0  0  0
    3.1240    2.3177    4.0473 H   0  0  0  0  0  0  0  0  0  0  0  0
    2.7903    0.2922    2.8282 H   0  0  0  0  0  0  0  0  0  0  0  0
    4.8292    5.6401    4.6390 H   0  0  0  0  0  0  0  0  0  0  0  0
    2.3663    6.7154    5.0336 H   0  0  0  0  0  0  0  0  0  0  0  0
    0.6923    6.6961    6.8311 H   0  0  0  0  0  0  0  0  0  0  0  0
    0.5709    4.7195    8.3491 H   0  0  0  0  0  0  0  0  0  0  0  0
    3.5967    2.7941    6.3773 H   0  0  0  0  0  0  0  0  0  0  0  0
    5.7257    3.1755    2.7727 H   0  0  0  0  0  0  0  0  0  0  0  0
    6.7866    1.1317    3.2922 H   0  0  0  0  0  0  0  0  0  0  0  0
    6.9406    1.5915    4.9783 H   0  0  0  0  0  0  0  0  0  0  0  0
    8.7462    3.1148    5.7280 H   0  0  0  0  0  0  0  0  0  0  0  0
   11.0347    3.9408    5.2927 H   0  0  0  0  0  0  0  0  0  0  0  0
   11.9931    3.8146    3.0074 H   0  0  0  0  0  0  0  0  0  0  0  0
   10.6511    2.8635    1.1512 H   0  0  0  0  0  0  0  0  0  0  0  0
    8.3685    2.0187    1.5715 H   0  0  0  0  0  0  0  0  0  0  0  0
    4.8083    7.3584    3.8326 H   0  0  0  0  0  0  0  0  0  0  0  0
    2.6275    8.5664    2.0441 H   0  0  0  0  0  0  0  0  0  0  0  0
    3.6882    9.4400    3.2871 H   0  0  0  0  0  0  0  0  0  0  0  0
  1  2  1  0  0  0  0
  1 33  1  0  0  0  0
  1 34  1  0  0  0  0
  1 35  1  0  0  0  0
  2  3  1  0  0  0  0
  2  4  1  0  0  0  0
  2  5  1  0  0  0  0
  3 36  1  0  0  0  0
  3 37  1  0  0  0  0
  3 38  1  0  0  0  0
  4 39  1  0  0  0  0
  4 40  1  0  0  0  0
  4 41  1  0  0  0  0
  5  6  1  0  0  0  0
  5 10  2  0  0  0  0
  6  7  2  0  0  0  0
  6 42  1  0  0  0  0
  7  8  1  0  0  0  0
  7 43  1  0  0  0  0
  8  9  2  0  0  0  0
  8 11  1  0  0  0  0
  9 10  1  0  0  0  0
  9 44  1  0  0  0  0
 10 45  1  0  0  0  0
 11 12  1  0  0  0  0
 11 29  1  0  0  0  0
 12 13  1  0  0  0  0
 12 19  1  0  0  0  0
 12 46  1  0  0  0  0
 13 14  1  0  0  0  0
 13 18  2  0  0  0  0
 14 15  2  0  0  0  0
 14 47  1  0  0  0  0
 15 16  1  0  0  0  0
 15 48  1  0  0  0  0
 16 17  2  0  0  0  0
 16 49  1  0  0  0  0
 17 18  1  0  0  0  0
 18 50  1  0  0  0  0
 19 20  2  0  0  0  0
 19 21  1  0  0  0  0
 21 22  1  0  0  0  0
 21 51  1  0  0  0  0
 22 23  1  0  0  0  0
 22 52  1  0  0  0  0
 22 53  1  0  0  0  0
 23 24  1  0  0  0  0
 23 28  2  0  0  0  0
 24 25  2  0  0  0  0
 24 54  1  0  0  0  0
 25 26  1  0  0  0  0
 25 55  1  0  0  0  0
 26 27  2  0  0  0  0
 26 56  1  0  0  0  0
 27 28  1  0  0  0  0
 27 57  1  0  0  0  0
 28 58  1  0  0  0  0
 29 30  2  0  0  0  0
 29 31  1  0  0  0  0
 31 32  2  0  0  0  0
 31 59  1  0  0  0  0
 32 60  1  0  0  0  0
 32 61  1  0  0  0  0
M  END
$$$$
