
 OpenBabel07202414203D

 32 34  0  0  0  0  0  0  0  0999 V2000
    1.7330    0.3724   -0.5016 C   0  0  0  0  0  0  0  0  0  0  0  0
    1.3887    1.6257    0.0063 C   0  0  0  0  0  0  0  0  0  0  0  0
    0.1151    1.8649    0.5301 C   0  0  0  0  0  0  0  0  0  0  0  0
   -0.7961    0.8009    0.5001 C   0  0  0  0  0  0  0  0  0  0  0  0
   -0.4783   -0.4710    0.0325 C   0  0  0  0  0  0  0  0  0  0  0  0
    0.8159   -0.6900   -0.4818 C   0  0  0  0  0  0  0  0  0  0  0  0
   -1.6866   -1.2156    0.1789 C   0  0  0  0  0  0  0  0  0  0  0  0
   -2.6993   -0.4408    0.5830 N   0  0  0  0  0  0  0  0  0  0  0  0
   -2.1075    0.7250    0.8771 N   0  0  0  0  0  0  0  0  0  0  0  0
   -1.9546   -2.5380   -0.1126 N   0  0  0  0  0  0  0  0  0  0  0  0
   -1.1678   -3.5622    0.3764 C   0  0  0  0  0  0  0  0  0  0  0  0
   -0.1631   -3.4212    1.0789 O   0  0  0  0  0  0  0  0  0  0  0  0
   -1.6477   -4.9383   -0.0385 C   0  0  0  0  0  0  0  0  0  0  0  0
   -2.7188   -5.5565    0.8415 C   0  0  0  0  0  0  0  0  0  0  0  0
   -2.4947   -5.7778    2.2089 C   0  0  0  0  0  0  0  0  0  0  0  0
   -3.4525   -6.4409    2.9873 C   0  0  0  0  0  0  0  0  0  0  0  0
   -4.6359   -6.8946    2.4101 C   0  0  0  0  0  0  0  0  0  0  0  0
   -4.8667   -6.6827    1.0561 C   0  0  0  0  0  0  0  0  0  0  0  0
   -3.9167   -6.0188    0.2742 C   0  0  0  0  0  0  0  0  0  0  0  0
   -6.3167   -7.2625    0.3316 Cl  0  0  0  0  0  0  0  0  0  0  0  0
    2.7238    0.2187   -0.9224 H   0  0  0  0  0  0  0  0  0  0  0  0
    2.1207    2.4311   -0.0114 H   0  0  0  0  0  0  0  0  0  0  0  0
   -0.1558    2.8405    0.9150 H   0  0  0  0  0  0  0  0  0  0  0  0
    1.0941   -1.6579   -0.8876 H   0  0  0  0  0  0  0  0  0  0  0  0
   -2.6685    1.4542    1.3006 H   0  0  0  0  0  0  0  0  0  0  0  0
   -2.9466   -2.7244   -0.1747 H   0  0  0  0  0  0  0  0  0  0  0  0
   -0.7833   -5.6118   -0.0591 H   0  0  0  0  0  0  0  0  0  0  0  0
   -2.0015   -4.8782   -1.0770 H   0  0  0  0  0  0  0  0  0  0  0  0
   -1.5650   -5.4508    2.6745 H   0  0  0  0  0  0  0  0  0  0  0  0
   -3.2612   -6.6153    4.0440 H   0  0  0  0  0  0  0  0  0  0  0  0
   -5.3705   -7.4176    3.0210 H   0  0  0  0  0  0  0  0  0  0  0  0
   -4.1089   -5.8849   -0.7900 H   0  0  0  0  0  0  0  0  0  0  0  0
  1  2  1  0  0  0  0
  1  6  2  0  0  0  0
  1 21  1  0  0  0  0
  2  3  2  0  0  0  0
  2 22  1  0  0  0  0
  3  4  1  0  0  0  0
  3 23  1  0  0  0  0
  4  5  2  0  0  0  0
  4  9  1  0  0  0  0
  5  6  1  0  0  0  0
  5  7  1  0  0  0  0
  6 24  1  0  0  0  0
  7  8  2  0  0  0  0
  7 10  1  0  0  0  0
  8  9  1  0  0  0  0
  9 25  1  0  0  0  0
 10 11  1  0  0  0  0
 10 26  1  0  0  0  0
 11 12  2  0  0  0  0
 11 13  1  0  0  0  0
 13 14  1  0  0  0  0
 13 27  1  0  0  0  0
 13 28  1  0  0  0  0
 14 15  1  0  0  0  0
 14 19  2  0  0  0  0
 15 16  2  0  0  0  0
 15 29  1  0  0  0  0
 16 17  1  0  0  0  0
 16 30  1  0  0  0  0
 17 18  2  0  0  0  0
 17 31  1  0  0  0  0
 18 19  1  0  0  0  0
 18 20  1  0  0  0  0
 19 32  1  0  0  0  0
M  END
$$$$
