
 OpenBabel07202414183D

 56 60  0  0  1  0  0  0  0  0999 V2000
    0.9918   -0.0256    0.0380 Cl  0  0  0  0  0  0  0  0  0  0  0  0
    2.7076   -0.0477    0.1506 C   0  0  0  0  0  0  0  0  0  0  0  0
    3.4184    1.1385    0.0012 C   0  0  0  0  0  0  0  0  0  0  0  0
    4.8077    1.1165    0.0599 C   0  0  0  0  0  0  0  0  0  0  0  0
    5.4939   -0.0886    0.2840 C   0  0  0  0  0  0  0  0  0  0  0  0
    4.7759   -1.2822    0.4654 C   0  0  0  0  0  0  0  0  0  0  0  0
    3.3735   -1.2519    0.3838 C   0  0  0  0  0  0  0  0  0  0  0  0
    5.5088   -2.5816    0.7683 C   0  0  2  0  0  0  0  0  0  0  0  0
    5.3951   -3.0096    2.2556 C   0  0  0  0  0  0  0  0  0  0  0  0
    4.8195   -2.3115    3.0969 O   0  0  0  0  0  0  0  0  0  0  0  0
    5.8986   -4.2736    2.5063 N   0  0  0  0  0  0  0  0  0  0  0  0
    5.9550   -4.9655    3.7542 C   0  0  0  0  0  0  0  0  0  0  0  0
    5.4140   -4.4536    4.9293 C   0  0  0  0  0  0  0  0  0  0  0  0
    5.7058   -4.9265    6.1653 N   0  0  0  0  0  0  0  0  0  0  0  0
    6.4885   -6.0219    6.2237 C   0  0  0  0  0  0  0  0  0  0  0  0
    6.8804   -6.7640    5.1128 C   0  0  0  0  0  0  0  0  0  0  0  0
    7.4874   -8.0267    5.2575 C   0  0  0  0  0  0  0  0  0  0  0  0
    7.8805   -8.7580    4.1401 C   0  0  0  0  0  0  0  0  0  0  0  0
    7.7103   -8.2169    2.8737 C   0  0  0  0  0  0  0  0  0  0  0  0
    7.0981   -6.9683    2.7214 C   0  0  0  0  0  0  0  0  0  0  0  0
    6.6399   -6.2122    3.8331 C   0  0  0  0  0  0  0  0  0  0  0  0
    6.9532   -2.5178    0.2286 C   0  0  0  0  0  0  0  0  0  0  0  0
    7.6844   -1.2948    0.6929 N   0  0  0  0  0  0  0  0  0  0  0  0
    9.3518   -1.3116    0.2821 S   0  0  0  0  0  0  0  0  0  0  0  0
    9.9247   -2.4940    0.8601 O   0  0  0  0  0  0  0  0  0  0  0  0
    9.4500   -1.0428   -1.1329 O   0  0  0  0  0  0  0  0  0  0  0  0
    9.9874    0.1243    1.1715 C   0  0  0  0  0  0  0  0  0  0  0  0
   11.4684    0.3396    0.8761 C   0  0  0  0  0  0  0  0  0  0  0  0
   12.0686    1.5840    1.5893 C   0  0  0  0  0  0  0  0  0  0  0  0
   13.1249    1.8852    0.2020 S   0  0  0  0  0  0  0  0  0  0  0  0
   13.0590    3.2693   -0.2161 O   0  0  0  0  0  0  0  0  0  0  0  0
   14.3612    1.1417    0.3009 O   0  0  0  0  0  0  0  0  0  0  0  0
   11.8281    0.9226   -0.5226 C   0  0  0  0  0  0  0  0  0  0  0  0
    6.9970   -0.0543    0.2535 C   0  0  0  0  0  0  0  0  0  0  0  0
    2.9020    2.0794   -0.1668 H   0  0  0  0  0  0  0  0  0  0  0  0
    5.3594    2.0453   -0.0744 H   0  0  0  0  0  0  0  0  0  0  0  0
    2.7974   -2.1653    0.5121 H   0  0  0  0  0  0  0  0  0  0  0  0
    4.9996   -3.3749    0.2006 H   0  0  0  0  0  0  0  0  0  0  0  0
    6.4506   -4.6945    1.7734 H   0  0  0  0  0  0  0  0  0  0  0  0
    4.7199   -3.6204    4.9432 H   0  0  0  0  0  0  0  0  0  0  0  0
    6.8044   -6.2966    7.2276 H   0  0  0  0  0  0  0  0  0  0  0  0
    7.6180   -8.4667    6.2449 H   0  0  0  0  0  0  0  0  0  0  0  0
    8.3132   -9.7486    4.2572 H   0  0  0  0  0  0  0  0  0  0  0  0
    8.0369   -8.7712    1.9969 H   0  0  0  0  0  0  0  0  0  0  0  0
    6.9533   -6.6201    1.7037 H   0  0  0  0  0  0  0  0  0  0  0  0
    6.9209   -2.5023   -0.8704 H   0  0  0  0  0  0  0  0  0  0  0  0
    7.5107   -3.4138    0.5184 H   0  0  0  0  0  0  0  0  0  0  0  0
    9.8210   -0.0559    2.2379 H   0  0  0  0  0  0  0  0  0  0  0  0
    9.4218    1.0027    0.8547 H   0  0  0  0  0  0  0  0  0  0  0  0
   12.0508   -0.5643    1.1060 H   0  0  0  0  0  0  0  0  0  0  0  0
   12.6093    1.3732    2.5157 H   0  0  0  0  0  0  0  0  0  0  0  0
   11.3741    2.4141    1.7581 H   0  0  0  0  0  0  0  0  0  0  0  0
   12.1849    0.1940   -1.2547 H   0  0  0  0  0  0  0  0  0  0  0  0
   11.0627    1.5567   -0.9823 H   0  0  0  0  0  0  0  0  0  0  0  0
    7.2915    0.1921   -0.7741 H   0  0  0  0  0  0  0  0  0  0  0  0
    7.3112    0.7541    0.9209 H   0  0  0  0  0  0  0  0  0  0  0  0
  1  2  1  0  0  0  0
  2  3  1  0  0  0  0
  2  7  2  0  0  0  0
  3  4  2  0  0  0  0
  3 35  1  0  0  0  0
  4  5  1  0  0  0  0
  4 36  1  0  0  0  0
  5  6  2  0  0  0  0
  5 34  1  0  0  0  0
  6  7  1  0  0  0  0
  6  8  1  0  0  0  0
  7 37  1  0  0  0  0
  8  9  1  0  0  0  0
  8 22  1  0  0  0  0
  8 38  1  6  0  0  0
  9 10  2  0  0  0  0
  9 11  1  0  0  0  0
 11 12  1  0  0  0  0
 11 39  1  0  0  0  0
 12 13  1  0  0  0  0
 12 21  2  0  0  0  0
 13 14  2  0  0  0  0
 13 40  1  0  0  0  0
 14 15  1  0  0  0  0
 15 16  2  0  0  0  0
 15 41  1  0  0  0  0
 16 17  1  0  0  0  0
 16 21  1  0  0  0  0
 17 18  2  0  0  0  0
 17 42  1  0  0  0  0
 18 19  1  0  0  0  0
 18 43  1  0  0  0  0
 19 20  2  0  0  0  0
 19 44  1  0  0  0  0
 20 21  1  0  0  0  0
 20 45  1  0  0  0  0
 22 23  1  0  0  0  0
 22 46  1  0  0  0  0
 22 47  1  0  0  0  0
 23 24  1  0  0  0  0
 23 34  1  0  0  0  0
 24 25  2  0  0  0  0
 24 26  2  0  0  0  0
 24 27  1  0  0  0  0
 27 28  1  0  0  0  0
 27 48  1  0  0  0  0
 27 49  1  0  0  0  0
 28 29  1  0  0  0  0
 28 33  1  0  0  0  0
 28 50  1  0  0  0  0
 29 30  1  0  0  0  0
 29 51  1  0  0  0  0
 29 52  1  0  0  0  0
 30 31  2  0  0  0  0
 30 32  2  0  0  0  0
 30 33  1  0  0  0  0
 33 53  1  0  0  0  0
 33 54  1  0  0  0  0
 34 55  1  0  0  0  0
 34 56  1  0  0  0  0
M  END
$$$$
