
 OpenBabel07202414173D

 56 60  0  0  1  0  0  0  0  0999 V2000
    1.0017    0.0531    0.0718 Cl  0  0  0  0  0  0  0  0  0  0  0  0
    2.7172    0.0604    0.1986 C   0  0  0  0  0  0  0  0  0  0  0  0
    3.4086    1.2653    0.0920 C   0  0  0  0  0  0  0  0  0  0  0  0
    4.8015    1.2688    0.1582 C   0  0  0  0  0  0  0  0  0  0  0  0
    5.5139    0.0682    0.3250 C   0  0  0  0  0  0  0  0  0  0  0  0
    4.8101   -1.1493    0.4387 C   0  0  0  0  0  0  0  0  0  0  0  0
    3.4055   -1.1393    0.3789 C   0  0  0  0  0  0  0  0  0  0  0  0
    5.5698   -2.4705    0.5988 C   0  0  3  0  0  0  0  0  0  0  0  0
    5.5358   -2.9910    2.0634 C   0  0  0  0  0  0  0  0  0  0  0  0
    4.5554   -2.7310    2.7652 O   0  0  0  0  0  0  0  0  0  0  0  0
    6.5628   -3.8308    2.4873 N   0  0  0  0  0  0  0  0  0  0  0  0
    6.6292   -4.4802    3.7724 C   0  0  0  0  0  0  0  0  0  0  0  0
    5.5277   -4.5543    4.6326 C   0  0  0  0  0  0  0  0  0  0  0  0
    5.5563   -5.0140    5.9076 N   0  0  0  0  0  0  0  0  0  0  0  0
    6.7411   -5.4592    6.3578 C   0  0  0  0  0  0  0  0  0  0  0  0
    7.8874   -5.5587    5.5772 C   0  0  0  0  0  0  0  0  0  0  0  0
    9.0523   -6.1373    6.1102 C   0  0  0  0  0  0  0  0  0  0  0  0
   10.1882   -6.2914    5.3242 C   0  0  0  0  0  0  0  0  0  0  0  0
   10.1704   -5.8557    4.0057 C   0  0  0  0  0  0  0  0  0  0  0  0
    9.0220   -5.2503    3.4735 C   0  0  0  0  0  0  0  0  0  0  0  0
    7.8410   -5.0789    4.2384 C   0  0  0  0  0  0  0  0  0  0  0  0
    6.9357   -2.3035   -0.0704 C   0  0  0  0  0  0  0  0  0  0  0  0
    7.6928   -1.1925    0.5785 N   0  0  0  0  0  0  0  0  0  0  0  0
    9.3667   -1.2189    0.3050 S   0  0  0  0  0  0  0  0  0  0  0  0
    9.7346   -2.5805   -0.0115 O   0  0  0  0  0  0  0  0  0  0  0  0
    9.7331   -0.1177   -0.5563 O   0  0  0  0  0  0  0  0  0  0  0  0
    9.9639   -0.9184    1.8554 N   0  0  0  0  0  0  0  0  0  0  0  0
    9.8427    0.4549    2.4267 C   0  0  0  0  0  0  0  0  0  0  0  0
   10.9482    1.3888    1.9155 C   0  0  0  0  0  0  0  0  0  0  0  0
   12.2481    0.8520    2.1959 O   0  0  0  0  0  0  0  0  0  0  0  0
   12.4053   -0.4370    1.5817 C   0  0  0  0  0  0  0  0  0  0  0  0
   11.3561   -1.4229    2.1072 C   0  0  0  0  0  0  0  0  0  0  0  0
    7.0293    0.1147    0.2952 C   0  0  0  0  0  0  0  0  0  0  0  0
    2.8713    2.1991   -0.0520 H   0  0  0  0  0  0  0  0  0  0  0  0
    5.3313    2.2156    0.0610 H   0  0  0  0  0  0  0  0  0  0  0  0
    2.8504   -2.0646    0.4781 H   0  0  0  0  0  0  0  0  0  0  0  0
    5.0302   -3.2307    0.0166 H   0  0  0  0  0  0  0  0  0  0  0  0
    7.4277   -3.8071    1.9674 H   0  0  0  0  0  0  0  0  0  0  0  0
    4.5304   -4.2577    4.3278 H   0  0  0  0  0  0  0  0  0  0  0  0
    6.7361   -5.7628    7.4022 H   0  0  0  0  0  0  0  0  0  0  0  0
    9.0735   -6.4936    7.1391 H   0  0  0  0  0  0  0  0  0  0  0  0
   11.0766   -6.7631    5.7377 H   0  0  0  0  0  0  0  0  0  0  0  0
   11.0503   -5.9939    3.3817 H   0  0  0  0  0  0  0  0  0  0  0  0
    9.0651   -4.9498    2.4298 H   0  0  0  0  0  0  0  0  0  0  0  0
    6.8015   -2.0573   -1.1354 H   0  0  0  0  0  0  0  0  0  0  0  0
    7.4758   -3.2515   -0.0367 H   0  0  0  0  0  0  0  0  0  0  0  0
    9.9321    0.3557    3.5165 H   0  0  0  0  0  0  0  0  0  0  0  0
    8.8632    0.8886    2.2499 H   0  0  0  0  0  0  0  0  0  0  0  0
   10.8752    2.3545    2.4258 H   0  0  0  0  0  0  0  0  0  0  0  0
   10.8683    1.5861    0.8422 H   0  0  0  0  0  0  0  0  0  0  0  0
   13.4075   -0.7954    1.8341 H   0  0  0  0  0  0  0  0  0  0  0  0
   12.3555   -0.3234    0.4933 H   0  0  0  0  0  0  0  0  0  0  0  0
   11.4658   -1.5354    3.1928 H   0  0  0  0  0  0  0  0  0  0  0  0
   11.5060   -2.4164    1.6758 H   0  0  0  0  0  0  0  0  0  0  0  0
    7.3159    0.4663   -0.7025 H   0  0  0  0  0  0  0  0  0  0  0  0
    7.3391    0.8550    1.0325 H   0  0  0  0  0  0  0  0  0  0  0  0
  1  2  1  0  0  0  0
  2  3  1  0  0  0  0
  2  7  2  0  0  0  0
  3  4  2  0  0  0  0
  3 34  1  0  0  0  0
  4  5  1  0  0  0  0
  4 35  1  0  0  0  0
  5  6  2  0  0  0  0
  5 33  1  0  0  0  0
  6  7  1  0  0  0  0
  6  8  1  0  0  0  0
  7 36  1  0  0  0  0
  8  9  1  0  0  0  0
  8 22  1  0  0  0  0
  8 37  1  0  0  0  0
  9 10  2  0  0  0  0
  9 11  1  0  0  0  0
 11 12  1  0  0  0  0
 11 38  1  0  0  0  0
 12 13  1  0  0  0  0
 12 21  2  0  0  0  0
 13 14  2  0  0  0  0
 13 39  1  0  0  0  0
 14 15  1  0  0  0  0
 15 16  2  0  0  0  0
 15 40  1  0  0  0  0
 16 17  1  0  0  0  0
 16 21  1  0  0  0  0
 17 18  2  0  0  0  0
 17 41  1  0  0  0  0
 18 19  1  0  0  0  0
 18 42  1  0  0  0  0
 19 20  2  0  0  0  0
 19 43  1  0  0  0  0
 20 21  1  0  0  0  0
 20 44  1  0  0  0  0
 22 23  1  0  0  0  0
 22 45  1  0  0  0  0
 22 46  1  0  0  0  0
 23 24  1  0  0  0  0
 23 33  1  0  0  0  0
 24 25  2  0  0  0  0
 24 26  2  0  0  0  0
 24 27  1  0  0  0  0
 27 28  1  0  0  0  0
 27 32  1  0  0  0  0
 28 29  1  0  0  0  0
 28 47  1  0  0  0  0
 28 48  1  0  0  0  0
 29 30  1  0  0  0  0
 29 49  1  0  0  0  0
 29 50  1  0  0  0  0
 30 31  1  0  0  0  0
 31 32  1  0  0  0  0
 31 51  1  0  0  0  0
 31 52  1  0  0  0  0
 32 53  1  0  0  0  0
 32 54  1  0  0  0  0
 33 55  1  0  0  0  0
 33 56  1  0  0  0  0
M  END
$$$$
