
 OpenBabel07202414173D

 33 34  0  0  0  0  0  0  0  0999 V2000
    1.0615   -0.1547   -0.5512 Cl  0  0  0  0  0  0  0  0  0  0  0  0
    2.8063   -0.1706   -0.8678 C   0  0  0  0  0  0  0  0  0  0  0  0
    3.3833    1.2314   -0.9768 C   0  0  0  0  0  0  0  0  0  0  0  0
    2.6907    2.2507   -0.9032 O   0  0  0  0  0  0  0  0  0  0  0  0
    4.7584    1.3171   -1.1488 N   0  0  0  0  0  0  0  0  0  0  0  0
    5.6499    0.1779   -1.3079 C   0  0  0  0  0  0  0  0  0  0  0  0
    6.7914    0.2488   -0.3000 C   0  0  0  0  0  0  0  0  0  0  0  0
    7.4954    1.5406   -0.3426 N   0  0  0  0  0  0  0  0  0  0  0  0
    8.8907    1.7396   -0.3926 C   0  0  0  0  0  0  0  0  0  0  0  0
    9.3811    2.8598   -0.5261 O   0  0  0  0  0  0  0  0  0  0  0  0
    9.8071    0.5768   -0.2960 C   0  0  0  0  0  0  0  0  0  0  0  0
   11.0304    0.6006   -0.9729 C   0  0  0  0  0  0  0  0  0  0  0  0
   11.8704   -0.5213   -0.9405 C   0  0  0  0  0  0  0  0  0  0  0  0
   11.4797   -1.6665   -0.2447 C   0  0  0  0  0  0  0  0  0  0  0  0
   12.4836   -3.0619   -0.2277 Cl  0  0  0  0  0  0  0  0  0  0  0  0
   10.2904   -1.6832    0.4665 C   0  0  0  0  0  0  0  0  0  0  0  0
    9.4969   -0.5412    0.4906 C   0  0  0  0  0  0  0  0  0  0  0  0
    6.6088    2.7044   -0.2246 C   0  0  0  0  0  0  0  0  0  0  0  0
    5.4320    2.6235   -1.2142 C   0  0  0  0  0  0  0  0  0  0  0  0
    2.9717   -0.7180   -1.8002 H   0  0  0  0  0  0  0  0  0  0  0  0
    3.2789   -0.6935   -0.0309 H   0  0  0  0  0  0  0  0  0  0  0  0
    6.0582    0.2128   -2.3229 H   0  0  0  0  0  0  0  0  0  0  0  0
    5.1450   -0.7822   -1.1903 H   0  0  0  0  0  0  0  0  0  0  0  0
    7.4270   -0.5926   -0.5477 H   0  0  0  0  0  0  0  0  0  0  0  0
    6.4129    0.1365    0.7230 H   0  0  0  0  0  0  0  0  0  0  0  0
   11.3402    1.4886   -1.5258 H   0  0  0  0  0  0  0  0  0  0  0  0
   12.8244   -0.4983   -1.4608 H   0  0  0  0  0  0  0  0  0  0  0  0
    9.9700   -2.5637    1.0179 H   0  0  0  0  0  0  0  0  0  0  0  0
    8.6177   -0.5542    1.1242 H   0  0  0  0  0  0  0  0  0  0  0  0
    7.1531    3.6433   -0.3607 H   0  0  0  0  0  0  0  0  0  0  0  0
    6.2264    2.6917    0.8040 H   0  0  0  0  0  0  0  0  0  0  0  0
    5.8028    2.7328   -2.2405 H   0  0  0  0  0  0  0  0  0  0  0  0
    4.7294    3.4394   -1.0196 H   0  0  0  0  0  0  0  0  0  0  0  0
  1  2  1  0  0  0  0
  2  3  1  0  0  0  0
  2 20  1  0  0  0  0
  2 21  1  0  0  0  0
  3  4  2  0  0  0  0
  3  5  1  0  0  0  0
  5  6  1  0  0  0  0
  5 19  1  0  0  0  0
  6  7  1  0  0  0  0
  6 22  1  0  0  0  0
  6 23  1  0  0  0  0
  7  8  1  0  0  0  0
  7 24  1  0  0  0  0
  7 25  1  0  0  0  0
  8  9  1  0  0  0  0
  8 18  1  0  0  0  0
  9 10  2  0  0  0  0
  9 11  1  0  0  0  0
 11 12  1  0  0  0  0
 11 17  2  0  0  0  0
 12 13  2  0  0  0  0
 12 26  1  0  0  0  0
 13 14  1  0  0  0  0
 13 27  1  0  0  0  0
 14 15  1  0  0  0  0
 14 16  2  0  0  0  0
 16 17  1  0  0  0  0
 16 28  1  0  0  0  0
 17 29  1  0  0  0  0
 18 19  1  0  0  0  0
 18 30  1  0  0  0  0
 18 31  1  0  0  0  0
 19 32  1  0  0  0  0
 19 33  1  0  0  0  0
M  END
$$$$
