
 OpenBabel07202414203D

 40 42  0  0  0  0  0  0  0  0999 V2000
   -1.6733    0.5454   -4.5118 O   0  5  0  0  0  0  0  0  0  0  0  0
   -1.4948    0.3223   -5.7165 N   0  3  0  0  0  0  0  0  0  0  0  0
   -2.3850    0.0965   -6.5449 O   0  0  0  0  0  0  0  0  0  0  0  0
   -0.1389    0.3277   -6.1651 C   0  0  0  0  0  0  0  0  0  0  0  0
    0.9809    0.5554   -5.4027 C   0  0  0  0  0  0  0  0  0  0  0  0
    2.1794    0.4602   -6.0916 N   0  0  0  0  0  0  0  0  0  0  0  0
    1.9423    0.1731   -7.3577 C   0  0  0  0  0  0  0  0  0  0  0  0
    3.2188   -0.0658   -8.5534 S   0  0  0  0  0  0  0  0  0  0  0  0
    4.6301    0.3918   -7.5500 C   0  0  0  0  0  0  0  0  0  0  0  0
    5.0327    1.7304   -7.5355 C   0  0  0  0  0  0  0  0  0  0  0  0
    6.0399    2.1593   -6.6673 C   0  0  0  0  0  0  0  0  0  0  0  0
    6.6497    1.2495   -5.8033 C   0  0  0  0  0  0  0  0  0  0  0  0
    6.2698   -0.0894   -5.8183 C   0  0  0  0  0  0  0  0  0  0  0  0
    5.2630   -0.5233   -6.6887 C   0  0  0  0  0  0  0  0  0  0  0  0
    4.9160   -1.8836   -6.7205 N   0  0  0  0  0  0  0  0  0  0  0  0
    4.6619   -2.7181   -5.6635 C   0  0  0  0  0  0  0  0  0  0  0  0
    4.5475   -3.9202   -5.8905 O   0  0  0  0  0  0  0  0  0  0  0  0
    4.4137   -2.0874   -4.4624 N   0  0  0  0  0  0  0  0  0  0  0  0
    3.9999   -2.7151   -3.2706 C   0  0  0  0  0  0  0  0  0  0  0  0
    4.1742   -4.0800   -3.0439 C   0  0  0  0  0  0  0  0  0  0  0  0
    3.6445   -4.6853   -1.9062 C   0  0  0  0  0  0  0  0  0  0  0  0
    2.9642   -3.9209   -0.9639 C   0  0  0  0  0  0  0  0  0  0  0  0
    2.8398   -2.5354   -1.1303 C   0  0  0  0  0  0  0  0  0  0  0  0
    2.1508   -1.6991   -0.0807 C   0  0  0  0  0  0  0  0  0  0  0  0
    1.6697   -2.4260    0.9667 F   0  0  0  0  0  0  0  0  0  0  0  0
    2.9798   -0.7663    0.4640 F   0  0  0  0  0  0  0  0  0  0  0  0
    1.0867   -1.0085   -0.5762 F   0  0  0  0  0  0  0  0  0  0  0  0
    3.3653   -1.9368   -2.2923 C   0  0  0  0  0  0  0  0  0  0  0  0
    0.2792    0.0252   -7.7833 S   0  0  0  0  0  0  0  0  0  0  0  0
    0.9915    0.7828   -4.3421 H   0  0  0  0  0  0  0  0  0  0  0  0
    4.5496    2.4606   -8.1790 H   0  0  0  0  0  0  0  0  0  0  0  0
    6.3327    3.2026   -6.6494 H   0  0  0  0  0  0  0  0  0  0  0  0
    7.4333    1.5829   -5.1264 H   0  0  0  0  0  0  0  0  0  0  0  0
    6.7904   -0.7958   -5.1748 H   0  0  0  0  0  0  0  0  0  0  0  0
    4.6431   -2.2868   -7.6091 H   0  0  0  0  0  0  0  0  0  0  0  0
    4.2292   -1.0959   -4.5384 H   0  0  0  0  0  0  0  0  0  0  0  0
    4.7178   -4.7041   -3.7476 H   0  0  0  0  0  0  0  0  0  0  0  0
    3.7577   -5.7572   -1.7686 H   0  0  0  0  0  0  0  0  0  0  0  0
    2.5362   -4.4152   -0.0928 H   0  0  0  0  0  0  0  0  0  0  0  0
    3.2449   -0.8637   -2.4348 H   0  0  0  0  0  0  0  0  0  0  0  0
  1  2  1  0  0  0  0
  2  3  2  0  0  0  0
  2  4  1  0  0  0  0
  4  5  2  0  0  0  0
  4 29  1  0  0  0  0
  5  6  1  0  0  0  0
  5 30  1  0  0  0  0
  6  7  2  0  0  0  0
  7  8  1  0  0  0  0
  7 29  1  0  0  0  0
  8  9  1  0  0  0  0
  9 10  1  0  0  0  0
  9 14  2  0  0  0  0
 10 11  2  0  0  0  0
 10 31  1  0  0  0  0
 11 12  1  0  0  0  0
 11 32  1  0  0  0  0
 12 13  2  0  0  0  0
 12 33  1  0  0  0  0
 13 14  1  0  0  0  0
 13 34  1  0  0  0  0
 14 15  1  0  0  0  0
 15 16  1  0  0  0  0
 15 35  1  0  0  0  0
 16 17  2  0  0  0  0
 16 18  1  0  0  0  0
 18 19  1  0  0  0  0
 18 36  1  0  0  0  0
 19 20  1  0  0  0  0
 19 28  2  0  0  0  0
 20 21  2  0  0  0  0
 20 37  1  0  0  0  0
 21 22  1  0  0  0  0
 21 38  1  0  0  0  0
 22 23  2  0  0  0  0
 22 39  1  0  0  0  0
 23 24  1  0  0  0  0
 23 28  1  0  0  0  0
 24 25  1  0  0  0  0
 24 26  1  0  0  0  0
 24 27  1  0  0  0  0
 28 40  1  0  0  0  0
M  CHG  2   1  -1   2   1
M  END
$$$$
