
 OpenBabel07202414173D

 40 44  0  0  1  0  0  0  0  0999 V2000
    0.8259    0.1251   -0.5048 Cl  0  0  0  0  0  0  0  0  0  0  0  0
    2.5355   -0.0529   -0.4116 C   0  0  0  0  0  0  0  0  0  0  0  0
    3.3329    1.0739   -0.1996 C   0  0  0  0  0  0  0  0  0  0  0  0
    4.7023    0.9222    0.0036 C   0  0  0  0  0  0  0  0  0  0  0  0
    5.2391   -0.3586   -0.0108 C   0  0  0  0  0  0  0  0  0  0  0  0
    4.4837   -1.5033   -0.3378 C   0  0  0  0  0  0  0  0  0  0  0  0
    3.1028   -1.3287   -0.5022 C   0  0  0  0  0  0  0  0  0  0  0  0
    5.3081   -2.8772   -0.2970 C   0  0  3  0  0  0  0  0  0  0  0  0
    4.5534   -4.0576   -0.9945 C   0  0  0  0  0  0  0  0  0  0  0  0
    4.1308   -5.0537   -0.4191 O   0  0  0  0  0  0  0  0  0  0  0  0
    4.4457   -3.8240   -2.3644 N   0  0  0  0  0  0  0  0  0  0  0  0
    3.7313   -4.5503   -3.3449 C   0  0  0  0  0  0  0  0  0  0  0  0
    2.9980   -5.6982   -3.0529 C   0  0  0  0  0  0  0  0  0  0  0  0
    2.1503   -6.3020   -3.9184 N   0  0  0  0  0  0  0  0  0  0  0  0
    2.0612   -5.7619   -5.1528 C   0  0  0  0  0  0  0  0  0  0  0  0
    2.8362   -4.6987   -5.6100 C   0  0  0  0  0  0  0  0  0  0  0  0
    2.7777   -4.2749   -6.9502 C   0  0  0  0  0  0  0  0  0  0  0  0
    3.5897   -3.2468   -7.4092 C   0  0  0  0  0  0  0  0  0  0  0  0
    4.4430   -2.6004   -6.5286 C   0  0  0  0  0  0  0  0  0  0  0  0
    4.4925   -2.9952   -5.1874 C   0  0  0  0  0  0  0  0  0  0  0  0
    3.6995   -4.0642   -4.6877 C   0  0  0  0  0  0  0  0  0  0  0  0
    6.8237   -2.7436   -0.7731 C   0  0  0  0  0  0  0  0  0  0  0  0
    6.9842   -1.9360    0.5377 C   0  0  3  0  0  0  0  0  0  0  0  0
    6.5467   -0.5417    0.4175 O   0  0  0  0  0  0  0  0  0  0  0  0
    5.9623   -2.9882    1.1289 C   0  0  0  0  0  0  0  0  0  0  0  0
    2.8851    2.0625   -0.1421 H   0  0  0  0  0  0  0  0  0  0  0  0
    5.3295    1.7815    0.2207 H   0  0  0  0  0  0  0  0  0  0  0  0
    2.4549   -2.1926   -0.6412 H   0  0  0  0  0  0  0  0  0  0  0  0
    4.8153   -2.9340   -2.6711 H   0  0  0  0  0  0  0  0  0  0  0  0
    3.0510   -6.1928   -2.0877 H   0  0  0  0  0  0  0  0  0  0  0  0
    1.3298   -6.2428   -5.7977 H   0  0  0  0  0  0  0  0  0  0  0  0
    2.1109   -4.7736   -7.6554 H   0  0  0  0  0  0  0  0  0  0  0  0
    3.5685   -2.9535   -8.4583 H   0  0  0  0  0  0  0  0  0  0  0  0
    5.0858   -1.7969   -6.8798 H   0  0  0  0  0  0  0  0  0  0  0  0
    5.1995   -2.4676   -4.5549 H   0  0  0  0  0  0  0  0  0  0  0  0
    6.9978   -2.1941   -1.7019 H   0  0  0  0  0  0  0  0  0  0  0  0
    7.3883   -3.6839   -0.8064 H   0  0  0  0  0  0  0  0  0  0  0  0
    7.9815   -1.9757    0.9833 H   0  0  0  0  0  0  0  0  0  0  0  0
    5.3596   -2.6298    1.9708 H   0  0  0  0  0  0  0  0  0  0  0  0
    6.3848   -3.9643    1.3891 H   0  0  0  0  0  0  0  0  0  0  0  0
  1  2  1  0  0  0  0
  2  3  1  0  0  0  0
  2  7  2  0  0  0  0
  3  4  2  0  0  0  0
  3 26  1  0  0  0  0
  4  5  1  0  0  0  0
  4 27  1  0  0  0  0
  5  6  2  0  0  0  0
  5 24  1  0  0  0  0
  6  7  1  0  0  0  0
  6  8  1  0  0  0  0
  7 28  1  0  0  0  0
  8  9  1  0  0  0  0
  8 22  1  0  0  0  0
  8 25  1  0  0  0  0
  9 10  2  0  0  0  0
  9 11  1  0  0  0  0
 11 12  1  0  0  0  0
 11 29  1  0  0  0  0
 12 13  1  0  0  0  0
 12 21  2  0  0  0  0
 13 14  2  0  0  0  0
 13 30  1  0  0  0  0
 14 15  1  0  0  0  0
 15 16  2  0  0  0  0
 15 31  1  0  0  0  0
 16 17  1  0  0  0  0
 16 21  1  0  0  0  0
 17 18  2  0  0  0  0
 17 32  1  0  0  0  0
 18 19  1  0  0  0  0
 18 33  1  0  0  0  0
 19 20  2  0  0  0  0
 19 34  1  0  0  0  0
 20 21  1  0  0  0  0
 20 35  1  0  0  0  0
 22 23  1  0  0  0  0
 22 36  1  0  0  0  0
 22 37  1  0  0  0  0
 23 24  1  0  0  0  0
 23 25  1  0  0  0  0
 23 38  1  0  0  0  0
 25 39  1  0  0  0  0
 25 40  1  0  0  0  0
M  END
$$$$
