
 OpenBabel07202414133D

 45 48  0  0  1  0  0  0  0  0999 V2000
    1.2827   -0.0108   -0.2394 C   0  0  0  0  0  0  0  0  0  0  0  0
    2.8037    0.0435   -0.1275 C   0  0  0  0  0  0  0  0  0  0  0  0
    3.4127    0.4333    1.2601 C   0  0  3  0  0  0  0  0  0  0  0  0
    4.9796    0.3778    1.1349 C   0  0  0  0  0  0  0  0  0  0  0  0
    5.5162    0.0155    0.0971 O   0  0  0  0  0  0  0  0  0  0  0  0
    5.6710    0.7549    2.2791 N   0  0  0  0  0  0  0  0  0  0  0  0
    7.0770    0.6942    2.5062 C   0  0  0  0  0  0  0  0  0  0  0  0
    7.9862    0.2682    1.5335 C   0  0  0  0  0  0  0  0  0  0  0  0
    9.2927   -0.0032    1.7663 N   0  0  0  0  0  0  0  0  0  0  0  0
    9.7435    0.2279    3.0135 C   0  0  0  0  0  0  0  0  0  0  0  0
    8.9844    0.8046    4.0261 C   0  0  0  0  0  0  0  0  0  0  0  0
    9.5797    1.1713    5.2492 C   0  0  0  0  0  0  0  0  0  0  0  0
    8.8279    1.7810    6.2482 C   0  0  0  0  0  0  0  0  0  0  0  0
    7.4684    1.9849    6.0566 C   0  0  0  0  0  0  0  0  0  0  0  0
    6.8650    1.6114    4.8503 C   0  0  0  0  0  0  0  0  0  0  0  0
    7.6067    1.0343    3.7852 C   0  0  0  0  0  0  0  0  0  0  0  0
    2.9966   -0.5909    2.3420 C   0  0  0  0  0  0  0  0  0  0  0  0
    1.6446   -0.4032    2.8224 N   0  0  0  0  0  0  0  0  0  0  0  0
    1.1040    0.8297    3.0719 C   0  0  0  0  0  0  0  0  0  0  0  0
    0.0508    0.9495    3.6869 O   0  0  0  0  0  0  0  0  0  0  0  0
    1.8385    2.0066    2.5236 C   0  0  0  0  0  0  0  0  0  0  0  0
    1.3565    3.2866    2.8230 C   0  0  0  0  0  0  0  0  0  0  0  0
    1.9526    4.4125    2.2539 C   0  0  0  0  0  0  0  0  0  0  0  0
    3.0235    4.2569    1.3789 C   0  0  0  0  0  0  0  0  0  0  0  0
    3.7339    5.6395    0.6429 Cl  0  0  0  0  0  0  0  0  0  0  0  0
    3.5137    2.9857    1.0752 C   0  0  0  0  0  0  0  0  0  0  0  0
    2.9340    1.8373    1.6499 C   0  0  0  0  0  0  0  0  0  0  0  0
    0.9975   -0.2171   -1.2753 H   0  0  0  0  0  0  0  0  0  0  0  0
    0.8146    0.9371    0.0405 H   0  0  0  0  0  0  0  0  0  0  0  0
    0.8586   -0.8113    0.3727 H   0  0  0  0  0  0  0  0  0  0  0  0
    3.1664    0.7454   -0.8914 H   0  0  0  0  0  0  0  0  0  0  0  0
    3.1882   -0.9428   -0.4223 H   0  0  0  0  0  0  0  0  0  0  0  0
    5.1136    1.0465    3.0695 H   0  0  0  0  0  0  0  0  0  0  0  0
    7.7080    0.1258    0.4948 H   0  0  0  0  0  0  0  0  0  0  0  0
   10.7789   -0.0634    3.1763 H   0  0  0  0  0  0  0  0  0  0  0  0
   10.6465    1.0254    5.4090 H   0  0  0  0  0  0  0  0  0  0  0  0
    9.3051    2.1058    7.1694 H   0  0  0  0  0  0  0  0  0  0  0  0
    6.8747    2.4543    6.8378 H   0  0  0  0  0  0  0  0  0  0  0  0
    5.8063    1.8266    4.7536 H   0  0  0  0  0  0  0  0  0  0  0  0
    3.6278   -0.5247    3.2363 H   0  0  0  0  0  0  0  0  0  0  0  0
    3.0826   -1.6199    1.9740 H   0  0  0  0  0  0  0  0  0  0  0  0
    1.1213   -1.1836    3.2034 H   0  0  0  0  0  0  0  0  0  0  0  0
    0.4961    3.4101    3.4795 H   0  0  0  0  0  0  0  0  0  0  0  0
    1.5609    5.4022    2.4767 H   0  0  0  0  0  0  0  0  0  0  0  0
    4.3352    2.8952    0.3645 H   0  0  0  0  0  0  0  0  0  0  0  0
  1  2  1  0  0  0  0
  1 28  1  0  0  0  0
  1 29  1  0  0  0  0
  1 30  1  0  0  0  0
  2  3  1  0  0  0  0
  2 31  1  0  0  0  0
  2 32  1  0  0  0  0
  3  4  1  0  0  0  0
  3 17  1  0  0  0  0
  3 27  1  0  0  0  0
  4  5  2  0  0  0  0
  4  6  1  0  0  0  0
  6  7  1  0  0  0  0
  6 33  1  0  0  0  0
  7  8  1  0  0  0  0
  7 16  2  0  0  0  0
  8  9  2  0  0  0  0
  8 34  1  0  0  0  0
  9 10  1  0  0  0  0
 10 11  2  0  0  0  0
 10 35  1  0  0  0  0
 11 12  1  0  0  0  0
 11 16  1  0  0  0  0
 12 13  2  0  0  0  0
 12 36  1  0  0  0  0
 13 14  1  0  0  0  0
 13 37  1  0  0  0  0
 14 15  2  0  0  0  0
 14 38  1  0  0  0  0
 15 16  1  0  0  0  0
 15 39  1  0  0  0  0
 17 18  1  0  0  0  0
 17 40  1  0  0  0  0
 17 41  1  0  0  0  0
 18 19  1  0  0  0  0
 18 42  1  0  0  0  0
 19 20  2  0  0  0  0
 19 21  1  0  0  0  0
 21 22  1  0  0  0  0
 21 27  2  0  0  0  0
 22 23  2  0  0  0  0
 22 43  1  0  0  0  0
 23 24  1  0  0  0  0
 23 44  1  0  0  0  0
 24 25  1  0  0  0  0
 24 26  2  0  0  0  0
 26 27  1  0  0  0  0
 26 45  1  0  0  0  0
M  END
$$$$
