
 OpenBabel07202414133D

 46 50  0  0  1  0  0  0  0  0999 V2000
    0.8167    0.4756    0.2459 C   0  0  0  0  0  0  0  0  0  0  0  0
    2.2364    0.1788    0.2637 N   0  0  0  0  0  0  0  0  0  0  0  0
    3.1216    1.2319    0.1519 C   0  0  0  0  0  0  0  0  0  0  0  0
    2.9075    2.4238    0.2674 O   0  0  0  0  0  0  0  0  0  0  0  0
    4.4386    0.6606   -0.0921 C   0  0  0  0  0  0  0  0  0  0  0  0
    5.6478    1.3411   -0.0480 C   0  0  0  0  0  0  0  0  0  0  0  0
    6.8064    0.5819   -0.1389 C   0  0  0  0  0  0  0  0  0  0  0  0
    6.7157   -0.8140   -0.2865 C   0  0  0  0  0  0  0  0  0  0  0  0
    8.1741   -1.7349   -0.3122 Cl  0  0  0  0  0  0  0  0  0  0  0  0
    5.4762   -1.4725   -0.3601 C   0  0  0  0  0  0  0  0  0  0  0  0
    4.3097   -0.7203   -0.2621 C   0  0  0  0  0  0  0  0  0  0  0  0
    2.8353   -1.1331   -0.1411 C   0  0  1  0  0  0  0  0  0  0  0  0
    2.7220   -2.1987    0.9698 C   0  0  0  0  0  0  0  0  0  0  0  0
    1.3576   -2.8609    1.0618 C   0  0  0  0  0  0  0  0  0  0  0  0
    0.9315   -3.3669   -0.2983 C   0  0  0  0  0  0  0  0  0  0  0  0
    0.9892   -2.3373   -1.3310 N   0  0  0  0  0  0  0  0  0  0  0  0
   -0.1985   -2.1936   -2.1222 C   0  0  0  0  0  0  0  0  0  0  0  0
   -1.3619   -1.7994   -1.4414 C   0  0  0  0  0  0  0  0  0  0  0  0
   -2.6134   -1.8107   -1.9406 N   0  0  0  0  0  0  0  0  0  0  0  0
   -2.7246   -2.2087   -3.2202 C   0  0  0  0  0  0  0  0  0  0  0  0
   -1.6490   -2.5561   -4.0375 C   0  0  0  0  0  0  0  0  0  0  0  0
   -1.8734   -2.8961   -5.3809 C   0  0  0  0  0  0  0  0  0  0  0  0
   -0.8147   -3.2773   -6.1959 C   0  0  0  0  0  0  0  0  0  0  0  0
    0.4674   -3.3585   -5.6627 C   0  0  0  0  0  0  0  0  0  0  0  0
    0.7027   -3.0210   -4.3227 C   0  0  0  0  0  0  0  0  0  0  0  0
   -0.3402   -2.5747   -3.4803 C   0  0  0  0  0  0  0  0  0  0  0  0
    2.1540   -1.5615   -1.5073 C   0  0  0  0  0  0  0  0  0  0  0  0
    2.4683   -1.0439   -2.5787 O   0  0  0  0  0  0  0  0  0  0  0  0
    0.6351    1.4870    0.6216 H   0  0  0  0  0  0  0  0  0  0  0  0
    0.2764   -0.2213    0.8815 H   0  0  0  0  0  0  0  0  0  0  0  0
    0.4538    0.4369   -0.7825 H   0  0  0  0  0  0  0  0  0  0  0  0
    5.6727    2.4145    0.1045 H   0  0  0  0  0  0  0  0  0  0  0  0
    7.7736    1.0738   -0.0703 H   0  0  0  0  0  0  0  0  0  0  0  0
    5.4499   -2.5547   -0.4441 H   0  0  0  0  0  0  0  0  0  0  0  0
    2.9789   -1.7703    1.9473 H   0  0  0  0  0  0  0  0  0  0  0  0
    3.4482   -3.0029    0.7880 H   0  0  0  0  0  0  0  0  0  0  0  0
    0.6152   -2.1704    1.4673 H   0  0  0  0  0  0  0  0  0  0  0  0
    1.4034   -3.7038    1.7613 H   0  0  0  0  0  0  0  0  0  0  0  0
   -0.0731   -3.8016   -0.2313 H   0  0  0  0  0  0  0  0  0  0  0  0
    1.6029   -4.1697   -0.6260 H   0  0  0  0  0  0  0  0  0  0  0  0
   -1.3142   -1.4558   -0.4123 H   0  0  0  0  0  0  0  0  0  0  0  0
   -3.7490   -2.2566   -3.5845 H   0  0  0  0  0  0  0  0  0  0  0  0
   -2.8758   -2.8531   -5.8027 H   0  0  0  0  0  0  0  0  0  0  0  0
   -0.9926   -3.5123   -7.2427 H   0  0  0  0  0  0  0  0  0  0  0  0
    1.2940   -3.6747   -6.2944 H   0  0  0  0  0  0  0  0  0  0  0  0
    1.7205   -3.0910   -3.9476 H   0  0  0  0  0  0  0  0  0  0  0  0
  1  2  1  0  0  0  0
  1 29  1  0  0  0  0
  1 30  1  0  0  0  0
  1 31  1  0  0  0  0
  2  3  1  0  0  0  0
  2 12  1  0  0  0  0
  3  5  1  0  0  0  0
  3  4  2  0  0  0  0
  5  6  1  0  0  0  0
  5 11  2  0  0  0  0
  6  7  2  0  0  0  0
  6 32  1  0  0  0  0
  7  8  1  0  0  0  0
  7 33  1  0  0  0  0
  8 10  2  0  0  0  0
  8  9  1  0  0  0  0
 10 11  1  0  0  0  0
 10 34  1  0  0  0  0
 12 11  1  6  0  0  0
 12 13  1  0  0  0  0
 12 27  1  0  0  0  0
 13 14  1  0  0  0  0
 13 35  1  0  0  0  0
 13 36  1  0  0  0  0
 14 15  1  0  0  0  0
 14 37  1  0  0  0  0
 14 38  1  0  0  0  0
 15 16  1  0  0  0  0
 15 39  1  0  0  0  0
 15 40  1  0  0  0  0
 16 27  1  0  0  0  0
 16 17  1  0  0  0  0
 17 18  1  0  0  0  0
 17 26  2  0  0  0  0
 18 19  2  0  0  0  0
 18 41  1  0  0  0  0
 19 20  1  0  0  0  0
 20 21  2  0  0  0  0
 20 42  1  0  0  0  0
 21 22  1  0  0  0  0
 21 26  1  0  0  0  0
 22 23  2  0  0  0  0
 22 43  1  0  0  0  0
 23 24  1  0  0  0  0
 23 44  1  0  0  0  0
 24 25  2  0  0  0  0
 24 45  1  0  0  0  0
 25 26  1  0  0  0  0
 25 46  1  0  0  0  0
 27 28  2  0  0  0  0
M  END
$$$$
