
 OpenBabel07202414193D

 47 50  0  0  1  0  0  0  0  0999 V2000
    1.2136    0.4965    0.3580 O   0  0  0  0  0  0  0  0  0  0  0  0
    2.3622    0.1674    0.0578 C   0  0  0  0  0  0  0  0  0  0  0  0
    2.9833   -1.1009    0.6304 C   0  0  0  0  0  0  0  0  0  0  0  0
    2.4645   -2.3931    0.0452 C   0  0  0  0  0  0  0  0  0  0  0  0
    1.1179   -2.7095    0.2448 C   0  0  0  0  0  0  0  0  0  0  0  0
    0.5337   -3.8625   -0.1409 N   0  0  0  0  0  0  0  0  0  0  0  0
    1.3252   -4.7599   -0.7608 C   0  0  0  0  0  0  0  0  0  0  0  0
    2.6797   -4.5684   -1.0310 C   0  0  0  0  0  0  0  0  0  0  0  0
    3.4337   -5.5657   -1.6771 C   0  0  0  0  0  0  0  0  0  0  0  0
    4.7861   -5.3733   -1.9406 C   0  0  0  0  0  0  0  0  0  0  0  0
    5.3965   -4.1863   -1.5606 C   0  0  0  0  0  0  0  0  0  0  0  0
    4.6558   -3.1937   -0.9087 C   0  0  0  0  0  0  0  0  0  0  0  0
    3.2765   -3.3495   -0.6254 C   0  0  0  0  0  0  0  0  0  0  0  0
    3.1615    0.9548   -0.7518 N   0  0  0  0  0  0  0  0  0  0  0  0
    2.7279    2.2568   -1.2098 C   0  0  0  0  0  0  0  0  0  0  0  0
    3.2371    2.3190   -2.6380 C   0  0  0  0  0  0  0  0  0  0  0  0
    4.5858    1.5404   -2.6249 C   0  0  1  0  0  0  0  0  0  0  0  0
    4.8845    0.9260   -4.0009 C   0  0  0  0  0  0  0  0  0  0  0  0
    4.4729    1.5741   -5.1814 C   0  0  0  0  0  0  0  0  0  0  0  0
    4.7396    1.0275   -6.4353 C   0  0  0  0  0  0  0  0  0  0  0  0
    5.4338   -0.1714   -6.5368 C   0  0  0  0  0  0  0  0  0  0  0  0
    5.8761   -0.8195   -5.3915 C   0  0  0  0  0  0  0  0  0  0  0  0
    5.6084   -0.2731   -4.1327 C   0  0  0  0  0  0  0  0  0  0  0  0
    5.7532    2.4506   -2.1666 C   0  0  0  0  0  0  0  0  0  0  0  0
    5.3277    3.6890   -1.8198 F   0  0  0  0  0  0  0  0  0  0  0  0
    6.4131    1.9522   -1.0946 F   0  0  0  0  0  0  0  0  0  0  0  0
    6.6859    2.6284   -3.1330 F   0  0  0  0  0  0  0  0  0  0  0  0
    4.2753    0.4652   -1.5499 C   0  0  0  0  0  0  0  0  0  0  0  0
    2.7547   -1.0985    1.7053 H   0  0  0  0  0  0  0  0  0  0  0  0
    4.0712   -1.0342    0.6010 H   0  0  0  0  0  0  0  0  0  0  0  0
    0.4467   -2.0230    0.7585 H   0  0  0  0  0  0  0  0  0  0  0  0
    0.8200   -5.6798   -1.0436 H   0  0  0  0  0  0  0  0  0  0  0  0
    2.9681   -6.5037   -1.9743 H   0  0  0  0  0  0  0  0  0  0  0  0
    5.3590   -6.1486   -2.4417 H   0  0  0  0  0  0  0  0  0  0  0  0
    6.4533   -4.0312   -1.7643 H   0  0  0  0  0  0  0  0  0  0  0  0
    5.1910   -2.2943   -0.6225 H   0  0  0  0  0  0  0  0  0  0  0  0
    3.2149    3.0083   -0.5784 H   0  0  0  0  0  0  0  0  0  0  0  0
    1.6446    2.3902   -1.1431 H   0  0  0  0  0  0  0  0  0  0  0  0
    3.3213    3.3495   -2.9995 H   0  0  0  0  0  0  0  0  0  0  0  0
    2.5032    1.8080   -3.2758 H   0  0  0  0  0  0  0  0  0  0  0  0
    3.9339    2.5198   -5.1487 H   0  0  0  0  0  0  0  0  0  0  0  0
    4.4001    1.5429   -7.3323 H   0  0  0  0  0  0  0  0  0  0  0  0
    5.6494   -0.5911   -7.5216 H   0  0  0  0  0  0  0  0  0  0  0  0
    6.4306   -1.7505   -5.4747 H   0  0  0  0  0  0  0  0  0  0  0  0
    5.9786   -0.8095   -3.2605 H   0  0  0  0  0  0  0  0  0  0  0  0
    5.1176    0.2389   -0.8900 H   0  0  0  0  0  0  0  0  0  0  0  0
    3.9433   -0.4773   -1.9966 H   0  0  0  0  0  0  0  0  0  0  0  0
  1  2  2  0  0  0  0
  2  3  1  0  0  0  0
  2 14  1  0  0  0  0
  3  4  1  0  0  0  0
  3 29  1  0  0  0  0
  3 30  1  0  0  0  0
  4  5  1  0  0  0  0
  4 13  2  0  0  0  0
  5  6  2  0  0  0  0
  5 31  1  0  0  0  0
  6  7  1  0  0  0  0
  7  8  2  0  0  0  0
  7 32  1  0  0  0  0
  8  9  1  0  0  0  0
  8 13  1  0  0  0  0
  9 10  2  0  0  0  0
  9 33  1  0  0  0  0
 10 11  1  0  0  0  0
 10 34  1  0  0  0  0
 11 12  2  0  0  0  0
 11 35  1  0  0  0  0
 12 13  1  0  0  0  0
 12 36  1  0  0  0  0
 14 15  1  0  0  0  0
 14 28  1  0  0  0  0
 15 16  1  0  0  0  0
 15 37  1  0  0  0  0
 15 38  1  0  0  0  0
 16 17  1  0  0  0  0
 16 39  1  0  0  0  0
 16 40  1  0  0  0  0
 17 18  1  0  0  0  0
 17 24  1  1  0  0  0
 17 28  1  0  0  0  0
 18 19  1  0  0  0  0
 18 23  2  0  0  0  0
 19 20  2  0  0  0  0
 19 41  1  0  0  0  0
 20 21  1  0  0  0  0
 20 42  1  0  0  0  0
 21 22  2  0  0  0  0
 21 43  1  0  0  0  0
 22 23  1  0  0  0  0
 22 44  1  0  0  0  0
 23 45  1  0  0  0  0
 24 25  1  0  0  0  0
 24 26  1  0  0  0  0
 24 27  1  0  0  0  0
 28 46  1  0  0  0  0
 28 47  1  0  0  0  0
M  END
$$$$
