
 OpenBabel07202414123D

 37 38  0  0  0  0  0  0  0  0999 V2000
    0.8898    0.6732    0.1437 C   0  0  0  0  0  0  0  0  0  0  0  0
    2.0695   -0.2829   -0.0289 C   0  0  0  0  0  0  0  0  0  0  0  0
    3.0725    0.2043   -1.0756 C   0  0  0  0  0  0  0  0  0  0  0  0
    2.7292   -0.7151    1.2756 C   0  0  0  0  0  0  0  0  0  0  0  0
    2.7384   -2.1110    1.5080 C   0  0  0  0  0  0  0  0  0  0  0  0
    3.3036   -2.6277    2.6600 C   0  0  0  0  0  0  0  0  0  0  0  0
    3.8783   -1.8680    3.6000 N   0  0  0  0  0  0  0  0  0  0  0  0
    3.8653   -0.5291    3.3822 C   0  0  0  0  0  0  0  0  0  0  0  0
    3.3013    0.1146    2.2673 C   0  0  0  0  0  0  0  0  0  0  0  0
    3.3443    1.5328    2.1453 N   0  0  0  0  0  0  0  0  0  0  0  0
    3.5860    2.4230    3.1883 C   0  0  0  0  0  0  0  0  0  0  0  0
    3.6885    2.1169    4.3770 O   0  0  0  0  0  0  0  0  0  0  0  0
    3.6883    3.8763    2.7756 C   0  0  0  0  0  0  0  0  0  0  0  0
    2.3621    4.6004    2.7797 C   0  0  0  0  0  0  0  0  0  0  0  0
    1.5844    4.6846    3.9460 C   0  0  0  0  0  0  0  0  0  0  0  0
    0.3582    5.3555    3.9391 C   0  0  0  0  0  0  0  0  0  0  0  0
   -0.1017    5.9574    2.7689 C   0  0  0  0  0  0  0  0  0  0  0  0
    0.6744    5.8987    1.6154 C   0  0  0  0  0  0  0  0  0  0  0  0
    1.9032    5.2358    1.6174 C   0  0  0  0  0  0  0  0  0  0  0  0
    0.1166    6.6459    0.1689 Cl  0  0  0  0  0  0  0  0  0  0  0  0
    0.4448    0.9080   -0.8314 H   0  0  0  0  0  0  0  0  0  0  0  0
    1.1607    1.6193    0.6127 H   0  0  0  0  0  0  0  0  0  0  0  0
    0.1097    0.2079    0.7564 H   0  0  0  0  0  0  0  0  0  0  0  0
    1.6198   -1.1816   -0.4786 H   0  0  0  0  0  0  0  0  0  0  0  0
    3.5547    1.1421   -0.7907 H   0  0  0  0  0  0  0  0  0  0  0  0
    2.5689    0.3623   -2.0376 H   0  0  0  0  0  0  0  0  0  0  0  0
    3.8561   -0.5446   -1.2429 H   0  0  0  0  0  0  0  0  0  0  0  0
    2.3005   -2.8045    0.7974 H   0  0  0  0  0  0  0  0  0  0  0  0
    3.2999   -3.6942    2.8624 H   0  0  0  0  0  0  0  0  0  0  0  0
    4.3798    0.0183    4.1649 H   0  0  0  0  0  0  0  0  0  0  0  0
    3.0597    1.9317    1.2629 H   0  0  0  0  0  0  0  0  0  0  0  0
    4.1669    3.9352    1.7928 H   0  0  0  0  0  0  0  0  0  0  0  0
    4.3685    4.3819    3.4741 H   0  0  0  0  0  0  0  0  0  0  0  0
    1.9275    4.2247    4.8732 H   0  0  0  0  0  0  0  0  0  0  0  0
   -0.2379    5.4063    4.8479 H   0  0  0  0  0  0  0  0  0  0  0  0
   -1.0604    6.4688    2.7651 H   0  0  0  0  0  0  0  0  0  0  0  0
    2.5032    5.2227    0.7111 H   0  0  0  0  0  0  0  0  0  0  0  0
  1  2  1  0  0  0  0
  1 21  1  0  0  0  0
  1 22  1  0  0  0  0
  1 23  1  0  0  0  0
  2  3  1  0  0  0  0
  2  4  1  0  0  0  0
  2 24  1  0  0  0  0
  3 25  1  0  0  0  0
  3 26  1  0  0  0  0
  3 27  1  0  0  0  0
  4  5  1  0  0  0  0
  4  9  2  0  0  0  0
  5  6  2  0  0  0  0
  5 28  1  0  0  0  0
  6  7  1  0  0  0  0
  6 29  1  0  0  0  0
  7  8  2  0  0  0  0
  8  9  1  0  0  0  0
  8 30  1  0  0  0  0
  9 10  1  0  0  0  0
 10 11  1  0  0  0  0
 10 31  1  0  0  0  0
 11 12  2  0  0  0  0
 11 13  1  0  0  0  0
 13 14  1  0  0  0  0
 13 32  1  0  0  0  0
 13 33  1  0  0  0  0
 14 15  1  0  0  0  0
 14 19  2  0  0  0  0
 15 16  2  0  0  0  0
 15 34  1  0  0  0  0
 16 17  1  0  0  0  0
 16 35  1  0  0  0  0
 17 18  2  0  0  0  0
 17 36  1  0  0  0  0
 18 19  1  0  0  0  0
 18 20  1  0  0  0  0
 19 37  1  0  0  0  0
M  END
$$$$
