
 OpenBabel07202414203D

 34 35  0  0  0  0  0  0  0  0999 V2000
    2.2841   -2.7199   -0.6593 C   0  0  0  0  0  0  0  0  0  0  0  0
    1.2660   -3.6777   -0.5216 C   0  0  0  0  0  0  0  0  0  0  0  0
    1.4639   -4.9430   -1.0994 C   0  0  0  0  0  0  0  0  0  0  0  0
    2.6153   -5.2217   -1.8395 C   0  0  0  0  0  0  0  0  0  0  0  0
    3.6058   -4.2563   -1.9955 C   0  0  0  0  0  0  0  0  0  0  0  0
    3.4402   -3.0125   -1.3957 C   0  0  0  0  0  0  0  0  0  0  0  0
    4.6674   -1.8171   -1.5553 Cl  0  0  0  0  0  0  0  0  0  0  0  0
    2.8128   -6.7643   -2.5708 Cl  0  0  0  0  0  0  0  0  0  0  0  0
    0.0179   -3.3548    0.2929 C   0  0  0  0  0  0  0  0  0  0  0  0
   -1.1878   -4.0636   -0.1631 N   0  0  0  0  0  0  0  0  0  0  0  0
   -1.6800   -3.6286   -1.4794 C   0  0  0  0  0  0  0  0  0  0  0  0
   -2.3466   -2.2454   -1.4963 C   0  0  0  0  0  0  0  0  0  0  0  0
   -3.3814   -2.0779   -0.4778 N   0  0  0  0  0  0  0  0  0  0  0  0
   -3.1694   -2.7315    0.8178 C   0  0  0  0  0  0  0  0  0  0  0  0
   -2.2968   -4.0049    0.8066 C   0  0  0  0  0  0  0  0  0  0  0  0
   -4.2767   -0.9929   -0.4781 C   0  0  0  0  0  0  0  0  0  0  0  0
   -5.0329   -0.7986    0.4748 O   0  0  0  0  0  0  0  0  0  0  0  0
   -4.2228   -0.0704   -1.6929 C   0  0  0  0  0  0  0  0  0  0  0  0
   -5.3818    1.2695   -1.5637 Cl  0  0  0  0  0  0  0  0  0  0  0  0
    2.1881   -1.7463   -0.1829 H   0  0  0  0  0  0  0  0  0  0  0  0
    0.7073   -5.7184   -0.9815 H   0  0  0  0  0  0  0  0  0  0  0  0
    4.5007   -4.4715   -2.5765 H   0  0  0  0  0  0  0  0  0  0  0  0
   -0.1487   -2.2707    0.3092 H   0  0  0  0  0  0  0  0  0  0  0  0
    0.2503   -3.6577    1.3226 H   0  0  0  0  0  0  0  0  0  0  0  0
   -2.4147   -4.3724   -1.8164 H   0  0  0  0  0  0  0  0  0  0  0  0
   -0.8833   -3.6528   -2.2303 H   0  0  0  0  0  0  0  0  0  0  0  0
   -2.7969   -2.0941   -2.4831 H   0  0  0  0  0  0  0  0  0  0  0  0
   -1.6058   -1.4525   -1.3473 H   0  0  0  0  0  0  0  0  0  0  0  0
   -4.1522   -2.9872    1.2347 H   0  0  0  0  0  0  0  0  0  0  0  0
   -2.7228   -1.9825    1.4820 H   0  0  0  0  0  0  0  0  0  0  0  0
   -2.9544   -4.8548    0.5810 H   0  0  0  0  0  0  0  0  0  0  0  0
   -1.9340   -4.1979    1.8246 H   0  0  0  0  0  0  0  0  0  0  0  0
   -4.4623   -0.6223   -2.6040 H   0  0  0  0  0  0  0  0  0  0  0  0
   -3.2268    0.3749   -1.7669 H   0  0  0  0  0  0  0  0  0  0  0  0
  1  2  1  0  0  0  0
  1  6  2  0  0  0  0
  1 20  1  0  0  0  0
  2  3  2  0  0  0  0
  2  9  1  0  0  0  0
  3  4  1  0  0  0  0
  3 21  1  0  0  0  0
  4  5  2  0  0  0  0
  4  8  1  0  0  0  0
  5  6  1  0  0  0  0
  5 22  1  0  0  0  0
  6  7  1  0  0  0  0
  9 10  1  0  0  0  0
  9 23  1  0  0  0  0
  9 24  1  0  0  0  0
 10 11  1  0  0  0  0
 10 15  1  0  0  0  0
 11 12  1  0  0  0  0
 11 25  1  0  0  0  0
 11 26  1  0  0  0  0
 12 13  1  0  0  0  0
 12 27  1  0  0  0  0
 12 28  1  0  0  0  0
 13 14  1  0  0  0  0
 13 16  1  0  0  0  0
 14 15  1  0  0  0  0
 14 29  1  0  0  0  0
 14 30  1  0  0  0  0
 15 31  1  0  0  0  0
 15 32  1  0  0  0  0
 16 17  2  0  0  0  0
 16 18  1  0  0  0  0
 18 19  1  0  0  0  0
 18 33  1  0  0  0  0
 18 34  1  0  0  0  0
M  END
$$$$
