
 OpenBabel07202414143D

 49 52  0  0  1  0  0  0  0  0999 V2000
    3.0526    3.0651    2.0344 C   0  0  0  0  0  0  0  0  0  0  0  0
    3.9306    1.9292    2.0441 N   0  0  0  0  0  0  0  0  0  0  0  0
    3.5153    0.6992    1.5838 C   0  0  0  0  0  0  0  0  0  0  0  0
    2.3803    0.4739    1.1883 O   0  0  0  0  0  0  0  0  0  0  0  0
    4.6346   -0.3424    1.4662 C   0  0  0  0  0  0  0  0  0  0  0  0
    5.3174   -0.6904    2.7104 N   0  0  0  0  0  0  0  0  0  0  0  0
    4.8170   -1.7829    3.5348 C   0  0  0  0  0  0  0  0  0  0  0  0
    5.9498   -2.7089    4.0153 C   0  0  2  0  0  0  0  0  0  0  0  0
    5.3439   -3.6649    5.0638 C   0  0  0  0  0  0  0  0  0  0  0  0
    4.4107   -4.3960    4.7305 O   0  0  0  0  0  0  0  0  0  0  0  0
    5.8897   -3.6451    6.3341 N   0  0  0  0  0  0  0  0  0  0  0  0
    5.7070   -4.6007    7.3794 C   0  0  0  0  0  0  0  0  0  0  0  0
    4.8906   -5.7256    7.2476 C   0  0  0  0  0  0  0  0  0  0  0  0
    4.8313   -6.7433    8.1401 N   0  0  0  0  0  0  0  0  0  0  0  0
    5.5542   -6.6019    9.2670 C   0  0  0  0  0  0  0  0  0  0  0  0
    6.2847   -5.4626    9.5919 C   0  0  0  0  0  0  0  0  0  0  0  0
    6.8603   -5.3188   10.8678 C   0  0  0  0  0  0  0  0  0  0  0  0
    7.5741   -4.1718   11.1994 C   0  0  0  0  0  0  0  0  0  0  0  0
    7.7792   -3.1930   10.2378 C   0  0  0  0  0  0  0  0  0  0  0  0
    7.2189   -3.3316    8.9630 C   0  0  0  0  0  0  0  0  0  0  0  0
    6.4105   -4.4444    8.6126 C   0  0  0  0  0  0  0  0  0  0  0  0
    7.2039   -1.9225    4.3836 C   0  0  0  0  0  0  0  0  0  0  0  0
    8.3508   -2.5765    4.8734 C   0  0  0  0  0  0  0  0  0  0  0  0
    9.5074   -1.8533    5.1852 C   0  0  0  0  0  0  0  0  0  0  0  0
   10.9036   -2.6809    5.7509 Cl  0  0  0  0  0  0  0  0  0  0  0  0
    9.5460   -0.4742    5.0154 C   0  0  0  0  0  0  0  0  0  0  0  0
    8.4518    0.1814    4.4574 C   0  0  0  0  0  0  0  0  0  0  0  0
    7.3070   -0.5464    4.0970 C   0  0  0  0  0  0  0  0  0  0  0  0
    6.3355    0.1157    3.1797 C   0  0  0  0  0  0  0  0  0  0  0  0
    6.5186    1.2628    2.7874 O   0  0  0  0  0  0  0  0  0  0  0  0
    3.5714    3.9196    2.4810 H   0  0  0  0  0  0  0  0  0  0  0  0
    2.1499    2.8336    2.6016 H   0  0  0  0  0  0  0  0  0  0  0  0
    2.7802    3.3004    0.9998 H   0  0  0  0  0  0  0  0  0  0  0  0
    4.9185    2.0505    2.2759 H   0  0  0  0  0  0  0  0  0  0  0  0
    5.3789    0.0612    0.7693 H   0  0  0  0  0  0  0  0  0  0  0  0
    4.2350   -1.2551    1.0112 H   0  0  0  0  0  0  0  0  0  0  0  0
    4.0708   -2.3539    2.9754 H   0  0  0  0  0  0  0  0  0  0  0  0
    4.3008   -1.3234    4.3920 H   0  0  0  0  0  0  0  0  0  0  0  0
    6.2465   -3.3425    3.1669 H   0  0  0  0  0  0  0  0  0  0  0  0
    6.5597   -2.9187    6.5331 H   0  0  0  0  0  0  0  0  0  0  0  0
    4.2288   -5.8742    6.4013 H   0  0  0  0  0  0  0  0  0  0  0  0
    5.5193   -7.4609    9.9339 H   0  0  0  0  0  0  0  0  0  0  0  0
    6.7164   -6.0848   11.6283 H   0  0  0  0  0  0  0  0  0  0  0  0
    7.9657   -4.0423   12.2051 H   0  0  0  0  0  0  0  0  0  0  0  0
    8.3596   -2.3063   10.4816 H   0  0  0  0  0  0  0  0  0  0  0  0
    7.4075   -2.5235    8.2640 H   0  0  0  0  0  0  0  0  0  0  0  0
    8.3620   -3.6600    4.9903 H   0  0  0  0  0  0  0  0  0  0  0  0
   10.4464    0.0908    5.2460 H   0  0  0  0  0  0  0  0  0  0  0  0
    8.5240    1.2438    4.2338 H   0  0  0  0  0  0  0  0  0  0  0  0
  1  2  1  0  0  0  0
  1 31  1  0  0  0  0
  1 32  1  0  0  0  0
  1 33  1  0  0  0  0
  2  3  1  0  0  0  0
  2 34  1  0  0  0  0
  3  4  2  0  0  0  0
  3  5  1  0  0  0  0
  5  6  1  0  0  0  0
  5 35  1  0  0  0  0
  5 36  1  0  0  0  0
  6  7  1  0  0  0  0
  6 29  1  0  0  0  0
  7  8  1  0  0  0  0
  7 37  1  0  0  0  0
  7 38  1  0  0  0  0
  8 22  1  0  0  0  0
  8  9  1  0  0  0  0
  8 39  1  6  0  0  0
  9 10  2  0  0  0  0
  9 11  1  0  0  0  0
 11 12  1  0  0  0  0
 11 40  1  0  0  0  0
 12 13  1  0  0  0  0
 12 21  2  0  0  0  0
 13 14  2  0  0  0  0
 13 41  1  0  0  0  0
 14 15  1  0  0  0  0
 15 16  2  0  0  0  0
 15 42  1  0  0  0  0
 16 17  1  0  0  0  0
 16 21  1  0  0  0  0
 17 18  2  0  0  0  0
 17 43  1  0  0  0  0
 18 19  1  0  0  0  0
 18 44  1  0  0  0  0
 19 20  2  0  0  0  0
 19 45  1  0  0  0  0
 20 21  1  0  0  0  0
 20 46  1  0  0  0  0
 22 23  1  0  0  0  0
 22 28  2  0  0  0  0
 23 24  2  0  0  0  0
 23 47  1  0  0  0  0
 24 25  1  0  0  0  0
 24 26  1  0  0  0  0
 26 27  2  0  0  0  0
 26 48  1  0  0  0  0
 27 28  1  0  0  0  0
 27 49  1  0  0  0  0
 28 29  1  0  0  0  0
 29 30  2  0  0  0  0
M  END
$$$$
