
 OpenBabel07202414193D

 47 50  0  0  0  0  0  0  0  0999 V2000
    0.9884   -0.0757    0.0495 O   0  0  0  0  0  0  0  0  0  0  0  0
    2.2228   -0.0506    0.0259 C   0  0  0  0  0  0  0  0  0  0  0  0
    3.0157   -1.0638   -0.8038 C   0  0  0  0  0  0  0  0  0  0  0  0
    2.1198   -1.9588   -1.6468 C   0  0  0  0  0  0  0  0  0  0  0  0
    1.6686   -3.1569   -1.0903 C   0  0  0  0  0  0  0  0  0  0  0  0
    0.7971   -4.0018   -1.6806 N   0  0  0  0  0  0  0  0  0  0  0  0
    0.3033   -3.6110   -2.8741 C   0  0  0  0  0  0  0  0  0  0  0  0
    0.6595   -2.4350   -3.5356 C   0  0  0  0  0  0  0  0  0  0  0  0
    0.0708   -2.0807   -4.7633 C   0  0  0  0  0  0  0  0  0  0  0  0
    0.4348   -0.9023   -5.4099 C   0  0  0  0  0  0  0  0  0  0  0  0
    1.4043   -0.0813   -4.8468 C   0  0  0  0  0  0  0  0  0  0  0  0
    1.9871   -0.4198   -3.6212 C   0  0  0  0  0  0  0  0  0  0  0  0
    1.6151   -1.5912   -2.9219 C   0  0  0  0  0  0  0  0  0  0  0  0
    2.9468    0.8823    0.7806 N   0  0  0  0  0  0  0  0  0  0  0  0
    2.1605    1.8261    1.5916 C   0  0  0  0  0  0  0  0  0  0  0  0
    1.9989    3.1834    0.9412 C   0  0  0  0  0  0  0  0  0  0  0  0
    1.3046    3.3184   -0.2700 C   0  0  0  0  0  0  0  0  0  0  0  0
    1.2103    4.5596   -0.9028 C   0  0  0  0  0  0  0  0  0  0  0  0
    1.7924    5.6849   -0.3240 C   0  0  0  0  0  0  0  0  0  0  0  0
    2.4349    5.5774    0.9067 C   0  0  0  0  0  0  0  0  0  0  0  0
    2.5280    4.3366    1.5407 C   0  0  0  0  0  0  0  0  0  0  0  0
    4.4404    0.9608    0.7768 C   0  0  0  0  0  0  0  0  0  0  0  0
    5.1323    0.0117    1.7913 C   0  0  0  0  0  0  0  0  0  0  0  0
    6.2169    1.0949    1.9604 C   0  0  0  0  0  0  0  0  0  0  0  0
    5.1539    2.1203    1.5249 C   0  0  0  0  0  0  0  0  0  0  0  0
    3.5954   -1.6897   -0.1149 H   0  0  0  0  0  0  0  0  0  0  0  0
    3.7367   -0.5572   -1.4504 H   0  0  0  0  0  0  0  0  0  0  0  0
    1.9949   -3.4789   -0.1048 H   0  0  0  0  0  0  0  0  0  0  0  0
   -0.4247   -4.2964   -3.3011 H   0  0  0  0  0  0  0  0  0  0  0  0
   -0.6873   -2.7165   -5.2157 H   0  0  0  0  0  0  0  0  0  0  0  0
   -0.0386   -0.6260   -6.3481 H   0  0  0  0  0  0  0  0  0  0  0  0
    1.7026    0.8332   -5.3539 H   0  0  0  0  0  0  0  0  0  0  0  0
    2.7379    0.2553   -3.2204 H   0  0  0  0  0  0  0  0  0  0  0  0
    2.6342    1.9081    2.5754 H   0  0  0  0  0  0  0  0  0  0  0  0
    1.1624    1.4211    1.7986 H   0  0  0  0  0  0  0  0  0  0  0  0
    0.8291    2.4531   -0.7290 H   0  0  0  0  0  0  0  0  0  0  0  0
    0.6831    4.6450   -1.8493 H   0  0  0  0  0  0  0  0  0  0  0  0
    1.7362    6.6465   -0.8271 H   0  0  0  0  0  0  0  0  0  0  0  0
    2.8676    6.4592    1.3720 H   0  0  0  0  0  0  0  0  0  0  0  0
    3.0269    4.2792    2.5052 H   0  0  0  0  0  0  0  0  0  0  0  0
    4.8403    0.8685   -0.2410 H   0  0  0  0  0  0  0  0  0  0  0  0
    5.4902   -0.9407    1.3918 H   0  0  0  0  0  0  0  0  0  0  0  0
    4.5562   -0.1790    2.7046 H   0  0  0  0  0  0  0  0  0  0  0  0
    7.0562    1.0026    1.2625 H   0  0  0  0  0  0  0  0  0  0  0  0
    6.6066    1.2233    2.9739 H   0  0  0  0  0  0  0  0  0  0  0  0
    5.5208    2.9328    0.8915 H   0  0  0  0  0  0  0  0  0  0  0  0
    4.6477    2.5528    2.3909 H   0  0  0  0  0  0  0  0  0  0  0  0
  1  2  2  0  0  0  0
  2  3  1  0  0  0  0
  2 14  1  0  0  0  0
  3  4  1  0  0  0  0
  3 26  1  0  0  0  0
  3 27  1  0  0  0  0
  4  5  1  0  0  0  0
  4 13  2  0  0  0  0
  5  6  2  0  0  0  0
  5 28  1  0  0  0  0
  6  7  1  0  0  0  0
  7  8  2  0  0  0  0
  7 29  1  0  0  0  0
  8  9  1  0  0  0  0
  8 13  1  0  0  0  0
  9 10  2  0  0  0  0
  9 30  1  0  0  0  0
 10 11  1  0  0  0  0
 10 31  1  0  0  0  0
 11 12  2  0  0  0  0
 11 32  1  0  0  0  0
 12 13  1  0  0  0  0
 12 33  1  0  0  0  0
 14 15  1  0  0  0  0
 14 22  1  0  0  0  0
 15 16  1  0  0  0  0
 15 34  1  0  0  0  0
 15 35  1  0  0  0  0
 16 17  1  0  0  0  0
 16 21  2  0  0  0  0
 17 18  2  0  0  0  0
 17 36  1  0  0  0  0
 18 19  1  0  0  0  0
 18 37  1  0  0  0  0
 19 20  2  0  0  0  0
 19 38  1  0  0  0  0
 20 21  1  0  0  0  0
 20 39  1  0  0  0  0
 21 40  1  0  0  0  0
 22 23  1  0  0  0  0
 22 25  1  0  0  0  0
 22 41  1  0  0  0  0
 23 24  1  0  0  0  0
 23 42  1  0  0  0  0
 23 43  1  0  0  0  0
 24 25  1  0  0  0  0
 24 44  1  0  0  0  0
 24 45  1  0  0  0  0
 25 46  1  0  0  0  0
 25 47  1  0  0  0  0
M  END
$$$$
