
 OpenBabel07202414153D

 46 49  0  0  1  0  0  0  0  0999 V2000
    3.1325   -1.4202   -1.1023 C   0  0  0  0  0  0  0  0  0  0  0  0
    2.8785   -0.0897    0.0611 S   0  0  0  0  0  0  0  0  0  0  0  0
    1.4625   -0.0058    0.3450 O   0  0  0  0  0  0  0  0  0  0  0  0
    3.8540   -0.1956    1.1235 O   0  0  0  0  0  0  0  0  0  0  0  0
    3.2798    1.3006   -0.8503 N   0  0  0  0  0  0  0  0  0  0  0  0
    4.7324    1.4174   -1.2150 C   0  0  0  0  0  0  0  0  0  0  0  0
    4.9089    2.4994   -2.2878 C   0  0  3  0  0  0  0  0  0  0  0  0
    4.3476    2.0152   -3.6369 C   0  0  0  0  0  0  0  0  0  0  0  0
    5.0771    1.9418   -4.6282 O   0  0  0  0  0  0  0  0  0  0  0  0
    3.0177    1.6484   -3.5889 N   0  0  0  0  0  0  0  0  0  0  0  0
    2.2420    0.9802   -4.5673 C   0  0  0  0  0  0  0  0  0  0  0  0
    2.7738    0.5379   -5.7781 C   0  0  0  0  0  0  0  0  0  0  0  0
    2.1157   -0.2600   -6.6512 N   0  0  0  0  0  0  0  0  0  0  0  0
    0.8383   -0.5671   -6.3460 C   0  0  0  0  0  0  0  0  0  0  0  0
    0.1488   -0.0706   -5.2425 C   0  0  0  0  0  0  0  0  0  0  0  0
   -1.2267   -0.3151   -5.0800 C   0  0  0  0  0  0  0  0  0  0  0  0
   -1.9215    0.2211   -3.9969 C   0  0  0  0  0  0  0  0  0  0  0  0
   -1.2343    0.9461   -3.0342 C   0  0  0  0  0  0  0  0  0  0  0  0
    0.1385    1.1734   -3.1771 C   0  0  0  0  0  0  0  0  0  0  0  0
    0.8673    0.7048   -4.3037 C   0  0  0  0  0  0  0  0  0  0  0  0
    4.3011    3.8107   -1.8320 C   0  0  0  0  0  0  0  0  0  0  0  0
    4.7819    5.0222   -2.3537 C   0  0  0  0  0  0  0  0  0  0  0  0
    4.2256    6.2315   -1.9410 C   0  0  0  0  0  0  0  0  0  0  0  0
    4.8564    7.7136   -2.5446 Cl  0  0  0  0  0  0  0  0  0  0  0  0
    3.1722    6.2487   -1.0313 C   0  0  0  0  0  0  0  0  0  0  0  0
    2.6927    5.0498   -0.5006 C   0  0  0  0  0  0  0  0  0  0  0  0
    3.2611    3.8235   -0.8790 C   0  0  0  0  0  0  0  0  0  0  0  0
    2.7981    2.5535   -0.1871 C   0  0  0  0  0  0  0  0  0  0  0  0
    2.8898   -2.3550   -0.5910 H   0  0  0  0  0  0  0  0  0  0  0  0
    4.1761   -1.4507   -1.4141 H   0  0  0  0  0  0  0  0  0  0  0  0
    2.4672   -1.2817   -1.9553 H   0  0  0  0  0  0  0  0  0  0  0  0
    5.1092    0.4676   -1.6034 H   0  0  0  0  0  0  0  0  0  0  0  0
    5.3114    1.6732   -0.3190 H   0  0  0  0  0  0  0  0  0  0  0  0
    5.9895    2.6424   -2.4248 H   0  0  0  0  0  0  0  0  0  0  0  0
    2.5782    1.7723   -2.6828 H   0  0  0  0  0  0  0  0  0  0  0  0
    3.7754    0.7951   -6.1025 H   0  0  0  0  0  0  0  0  0  0  0  0
    0.3600   -1.2398   -7.0542 H   0  0  0  0  0  0  0  0  0  0  0  0
   -1.7795   -0.8849   -5.8236 H   0  0  0  0  0  0  0  0  0  0  0  0
   -2.9956    0.0782   -3.9097 H   0  0  0  0  0  0  0  0  0  0  0  0
   -1.7652    1.3545   -2.1773 H   0  0  0  0  0  0  0  0  0  0  0  0
    0.6132    1.7626   -2.3988 H   0  0  0  0  0  0  0  0  0  0  0  0
    5.6033    5.0248   -3.0687 H   0  0  0  0  0  0  0  0  0  0  0  0
    2.7316    7.1921   -0.7186 H   0  0  0  0  0  0  0  0  0  0  0  0
    1.8819    5.0813    0.2257 H   0  0  0  0  0  0  0  0  0  0  0  0
    1.7000    2.5455   -0.2043 H   0  0  0  0  0  0  0  0  0  0  0  0
    3.1439    2.5827    0.8512 H   0  0  0  0  0  0  0  0  0  0  0  0
  1  2  1  0  0  0  0
  1 29  1  0  0  0  0
  1 30  1  0  0  0  0
  1 31  1  0  0  0  0
  2  3  2  0  0  0  0
  2  4  2  0  0  0  0
  2  5  1  0  0  0  0
  5  6  1  0  0  0  0
  5 28  1  0  0  0  0
  6  7  1  0  0  0  0
  6 32  1  0  0  0  0
  6 33  1  0  0  0  0
  7  8  1  0  0  0  0
  7 21  1  0  0  0  0
  7 34  1  0  0  0  0
  8  9  2  0  0  0  0
  8 10  1  0  0  0  0
 10 11  1  0  0  0  0
 10 35  1  0  0  0  0
 11 12  1  0  0  0  0
 11 20  2  0  0  0  0
 12 13  2  0  0  0  0
 12 36  1  0  0  0  0
 13 14  1  0  0  0  0
 14 15  2  0  0  0  0
 14 37  1  0  0  0  0
 15 16  1  0  0  0  0
 15 20  1  0  0  0  0
 16 17  2  0  0  0  0
 16 38  1  0  0  0  0
 17 18  1  0  0  0  0
 17 39  1  0  0  0  0
 18 19  2  0  0  0  0
 18 40  1  0  0  0  0
 19 20  1  0  0  0  0
 19 41  1  0  0  0  0
 21 22  1  0  0  0  0
 21 27  2  0  0  0  0
 22 23  2  0  0  0  0
 22 42  1  0  0  0  0
 23 24  1  0  0  0  0
 23 25  1  0  0  0  0
 25 26  2  0  0  0  0
 25 43  1  0  0  0  0
 26 27  1  0  0  0  0
 26 44  1  0  0  0  0
 27 28  1  0  0  0  0
 28 45  1  0  0  0  0
 28 46  1  0  0  0  0
M  END
$$$$
