
 OpenBabel07202414153D

 38 40  0  0  0  0  0  0  0  0999 V2000
    7.5999    0.9919   -3.6131 C   0  0  0  0  0  0  0  0  0  0  0  0
    6.3113    1.1853   -3.0469 O   0  0  0  0  0  0  0  0  0  0  0  0
    6.1025    2.3877   -2.4135 C   0  0  0  0  0  0  0  0  0  0  0  0
    6.8919    3.5273   -2.5891 C   0  0  0  0  0  0  0  0  0  0  0  0
    6.5699    4.7227   -1.9407 C   0  0  0  0  0  0  0  0  0  0  0  0
    5.4352    4.8005   -1.1377 C   0  0  0  0  0  0  0  0  0  0  0  0
    4.6447    3.6663   -0.9541 C   0  0  0  0  0  0  0  0  0  0  0  0
    4.9869    2.4449   -1.5591 C   0  0  0  0  0  0  0  0  0  0  0  0
    4.1574    1.2204   -1.2607 C   0  0  0  0  0  0  0  0  0  0  0  0
    2.9476    1.0712   -2.1616 C   0  0  0  0  0  0  0  0  0  0  0  0
    1.8476    1.4778   -1.7975 O   0  0  0  0  0  0  0  0  0  0  0  0
    3.2325    0.4432   -3.3635 N   0  0  0  0  0  0  0  0  0  0  0  0
    2.3084    0.1349   -4.3992 C   0  0  0  0  0  0  0  0  0  0  0  0
    0.9296    0.2985   -4.2388 C   0  0  0  0  0  0  0  0  0  0  0  0
    0.0067    0.1055   -5.2098 N   0  0  0  0  0  0  0  0  0  0  0  0
    0.4705   -0.3259   -6.3963 C   0  0  0  0  0  0  0  0  0  0  0  0
    1.8038   -0.6307   -6.6588 C   0  0  0  0  0  0  0  0  0  0  0  0
    2.1745   -1.1963   -7.8913 C   0  0  0  0  0  0  0  0  0  0  0  0
    3.5016   -1.5219   -8.1524 C   0  0  0  0  0  0  0  0  0  0  0  0
    4.4752   -1.2406   -7.2034 C   0  0  0  0  0  0  0  0  0  0  0  0
    4.1176   -0.6681   -5.9766 C   0  0  0  0  0  0  0  0  0  0  0  0
    2.7665   -0.3759   -5.6505 C   0  0  0  0  0  0  0  0  0  0  0  0
    7.6467   -0.0361   -3.9865 H   0  0  0  0  0  0  0  0  0  0  0  0
    8.3824    1.1098   -2.8564 H   0  0  0  0  0  0  0  0  0  0  0  0
    7.7658    1.6584   -4.4654 H   0  0  0  0  0  0  0  0  0  0  0  0
    7.7656    3.5252   -3.2314 H   0  0  0  0  0  0  0  0  0  0  0  0
    7.1967    5.6006   -2.0756 H   0  0  0  0  0  0  0  0  0  0  0  0
    5.1728    5.7373   -0.6550 H   0  0  0  0  0  0  0  0  0  0  0  0
    3.7610    3.7364   -0.3219 H   0  0  0  0  0  0  0  0  0  0  0  0
    3.7994    1.2622   -0.2234 H   0  0  0  0  0  0  0  0  0  0  0  0
    4.7649    0.3086   -1.3055 H   0  0  0  0  0  0  0  0  0  0  0  0
    4.2175    0.3100   -3.5583 H   0  0  0  0  0  0  0  0  0  0  0  0
    0.4837    0.5852   -3.2928 H   0  0  0  0  0  0  0  0  0  0  0  0
   -0.2964   -0.4349   -7.1589 H   0  0  0  0  0  0  0  0  0  0  0  0
    1.4211   -1.4142   -8.6461 H   0  0  0  0  0  0  0  0  0  0  0  0
    3.7707   -1.9954   -9.0932 H   0  0  0  0  0  0  0  0  0  0  0  0
    5.5162   -1.4764   -7.4105 H   0  0  0  0  0  0  0  0  0  0  0  0
    4.9211   -0.4720   -5.2733 H   0  0  0  0  0  0  0  0  0  0  0  0
  1  2  1  0  0  0  0
  1 23  1  0  0  0  0
  1 24  1  0  0  0  0
  1 25  1  0  0  0  0
  2  3  1  0  0  0  0
  3  4  1  0  0  0  0
  3  8  2  0  0  0  0
  4  5  2  0  0  0  0
  4 26  1  0  0  0  0
  5  6  1  0  0  0  0
  5 27  1  0  0  0  0
  6  7  2  0  0  0  0
  6 28  1  0  0  0  0
  7  8  1  0  0  0  0
  7 29  1  0  0  0  0
  8  9  1  0  0  0  0
  9 10  1  0  0  0  0
  9 30  1  0  0  0  0
  9 31  1  0  0  0  0
 10 11  2  0  0  0  0
 10 12  1  0  0  0  0
 12 13  1  0  0  0  0
 12 32  1  0  0  0  0
 13 14  1  0  0  0  0
 13 22  2  0  0  0  0
 14 15  2  0  0  0  0
 14 33  1  0  0  0  0
 15 16  1  0  0  0  0
 16 17  2  0  0  0  0
 16 34  1  0  0  0  0
 17 18  1  0  0  0  0
 17 22  1  0  0  0  0
 18 19  2  0  0  0  0
 18 35  1  0  0  0  0
 19 20  1  0  0  0  0
 19 36  1  0  0  0  0
 20 21  2  0  0  0  0
 20 37  1  0  0  0  0
 21 22  1  0  0  0  0
 21 38  1  0  0  0  0
M  END
$$$$
