
 OpenBabel07202414203D

 32 33  0  0  0  0  0  0  0  0999 V2000
    1.6777    0.0838   -1.2306 C   0  0  0  0  0  0  0  0  0  0  0  0
    0.2807    0.2233   -1.2716 C   0  0  0  0  0  0  0  0  0  0  0  0
   -0.4498    0.3055   -0.0888 C   0  0  0  0  0  0  0  0  0  0  0  0
    0.2099    0.2484    1.1363 C   0  0  0  0  0  0  0  0  0  0  0  0
    1.6069    0.1071    1.1775 C   0  0  0  0  0  0  0  0  0  0  0  0
    2.3581    0.0171   -0.0038 C   0  0  0  0  0  0  0  0  0  0  0  0
    3.8566   -0.0308    0.0375 C   0  0  0  0  0  0  0  0  0  0  0  0
    4.6108   -1.1641    0.0731 C   0  0  0  0  0  0  0  0  0  0  0  0
    3.8558   -2.4832    0.0566 C   0  0  0  0  0  0  0  0  0  0  0  0
    3.2294   -3.5775    0.0428 N   0  0  0  0  0  0  0  0  0  0  0  0
    6.0979   -1.2138    0.1650 C   0  0  0  0  0  0  0  0  0  0  0  0
    6.6259   -2.2949    0.4220 O   0  0  0  0  0  0  0  0  0  0  0  0
    6.7664   -0.0168   -0.0166 N   0  0  0  0  0  0  0  0  0  0  0  0
    8.1629    0.1872    0.0688 C   0  0  0  0  0  0  0  0  0  0  0  0
    9.0797   -0.8700    0.0710 C   0  0  0  0  0  0  0  0  0  0  0  0
   10.4445   -0.6346    0.2449 C   0  0  0  0  0  0  0  0  0  0  0  0
   10.8995    0.6641    0.4028 C   0  0  0  0  0  0  0  0  0  0  0  0
   10.0174    1.7359    0.3563 C   0  0  0  0  0  0  0  0  0  0  0  0
    8.6460    1.4990    0.1762 C   0  0  0  0  0  0  0  0  0  0  0  0
   12.2060    0.8859    0.6016 F   0  0  0  0  0  0  0  0  0  0  0  0
    4.4299    1.2349    0.0512 O   0  0  0  0  0  0  0  0  0  0  0  0
   -2.1586    0.5009   -0.1419 Cl  0  0  0  0  0  0  0  0  0  0  0  0
    2.2199    0.0390   -2.1734 H   0  0  0  0  0  0  0  0  0  0  0  0
   -0.2326    0.2745   -2.2304 H   0  0  0  0  0  0  0  0  0  0  0  0
   -0.3607    0.3225    2.0611 H   0  0  0  0  0  0  0  0  0  0  0  0
    2.0932    0.0797    2.1514 H   0  0  0  0  0  0  0  0  0  0  0  0
    6.1868    0.8183   -0.1034 H   0  0  0  0  0  0  0  0  0  0  0  0
    8.7627   -1.8981   -0.0675 H   0  0  0  0  0  0  0  0  0  0  0  0
   11.1429   -1.4649    0.2656 H   0  0  0  0  0  0  0  0  0  0  0  0
   10.4009    2.7445    0.4769 H   0  0  0  0  0  0  0  0  0  0  0  0
    7.9731    2.3524    0.1553 H   0  0  0  0  0  0  0  0  0  0  0  0
    3.7073    1.8954    0.0484 H   0  0  0  0  0  0  0  0  0  0  0  0
  1  2  1  0  0  0  0
  1  6  2  0  0  0  0
  1 23  1  0  0  0  0
  2  3  2  0  0  0  0
  2 24  1  0  0  0  0
  3  4  1  0  0  0  0
  3 22  1  0  0  0  0
  4  5  2  0  0  0  0
  4 25  1  0  0  0  0
  5  6  1  0  0  0  0
  5 26  1  0  0  0  0
  6  7  1  0  0  0  0
  7  8  2  0  0  0  0
  7 21  1  0  0  0  0
  8  9  1  0  0  0  0
  8 11  1  0  0  0  0
  9 10  3  0  0  0  0
 11 12  2  0  0  0  0
 11 13  1  0  0  0  0
 13 14  1  0  0  0  0
 13 27  1  0  0  0  0
 14 15  1  0  0  0  0
 14 19  2  0  0  0  0
 15 16  2  0  0  0  0
 15 28  1  0  0  0  0
 16 17  1  0  0  0  0
 16 29  1  0  0  0  0
 17 18  2  0  0  0  0
 17 20  1  0  0  0  0
 18 19  1  0  0  0  0
 18 30  1  0  0  0  0
 19 31  1  0  0  0  0
 21 32  1  0  0  0  0
M  END
$$$$
