
 OpenBabel07202414133D

 57 60  0  0  1  0  0  0  0  0999 V2000
   10.4473   -2.5816    1.3503 C   0  0  0  0  0  0  0  0  0  0  0  0
    9.9211   -1.7967    0.2279 N   0  0  0  0  0  0  0  0  0  0  0  0
   10.7442   -2.0715   -0.9572 C   0  0  0  0  0  0  0  0  0  0  0  0
    8.5148   -2.1612   -0.0703 C   0  0  0  0  0  0  0  0  0  0  0  0
    7.5647   -1.7997    1.0747 C   0  0  0  0  0  0  0  0  0  0  0  0
    6.7746   -2.6178    1.5400 O   0  0  0  0  0  0  0  0  0  0  0  0
    7.6482   -0.4977    1.5162 N   0  0  0  0  0  0  0  0  0  0  0  0
    6.8081    0.0580    2.5739 C   0  0  0  0  0  0  0  0  0  0  0  0
    7.4183   -0.0225    4.0165 C   0  0  3  0  0  0  0  0  0  0  0  0
    8.7057    0.8798    4.0243 C   0  0  0  0  0  0  0  0  0  0  0  0
    8.8349    1.7927    3.2016 O   0  0  0  0  0  0  0  0  0  0  0  0
    9.6207    0.6013    5.0191 N   0  0  0  0  0  0  0  0  0  0  0  0
   10.9456    1.1131    5.1661 C   0  0  0  0  0  0  0  0  0  0  0  0
   11.4637    2.1403    4.3775 C   0  0  0  0  0  0  0  0  0  0  0  0
   12.7591    2.5329    4.3868 N   0  0  0  0  0  0  0  0  0  0  0  0
   13.5764    1.9039    5.2531 C   0  0  0  0  0  0  0  0  0  0  0  0
   13.1612    0.9414    6.1737 C   0  0  0  0  0  0  0  0  0  0  0  0
   14.0571    0.4136    7.1256 C   0  0  0  0  0  0  0  0  0  0  0  0
   13.6327   -0.5258    8.0618 C   0  0  0  0  0  0  0  0  0  0  0  0
   12.3196   -0.9705    8.0388 C   0  0  0  0  0  0  0  0  0  0  0  0
   11.4262   -0.4624    7.0901 C   0  0  0  0  0  0  0  0  0  0  0  0
   11.8123    0.5217    6.1374 C   0  0  0  0  0  0  0  0  0  0  0  0
    7.7278   -1.4906    4.3984 C   0  0  0  0  0  0  0  0  0  0  0  0
    6.4457   -2.2755    4.6046 C   0  0  0  0  0  0  0  0  0  0  0  0
    5.7314   -1.7669    5.7312 O   0  0  0  0  0  0  0  0  0  0  0  0
    5.5667   -0.4085    5.7432 C   0  0  0  0  0  0  0  0  0  0  0  0
    4.5587    0.0412    6.5951 C   0  0  0  0  0  0  0  0  0  0  0  0
    4.2942    1.4027    6.7084 C   0  0  0  0  0  0  0  0  0  0  0  0
    5.0564    2.3117    5.9833 C   0  0  0  0  0  0  0  0  0  0  0  0
    4.7272    3.9934    6.1268 Cl  0  0  0  0  0  0  0  0  0  0  0  0
    6.0774    1.8663    5.1330 C   0  0  0  0  0  0  0  0  0  0  0  0
    6.3548    0.4947    4.9983 C   0  0  0  0  0  0  0  0  0  0  0  0
   11.4886   -2.3064    1.5537 H   0  0  0  0  0  0  0  0  0  0  0  0
   10.4052   -3.6607    1.1626 H   0  0  0  0  0  0  0  0  0  0  0  0
    9.9004   -2.3731    2.2704 H   0  0  0  0  0  0  0  0  0  0  0  0
   11.7866   -1.7864   -0.7759 H   0  0  0  0  0  0  0  0  0  0  0  0
   10.3995   -1.4844   -1.8148 H   0  0  0  0  0  0  0  0  0  0  0  0
   10.7237   -3.1327   -1.2354 H   0  0  0  0  0  0  0  0  0  0  0  0
    8.4164   -3.2340   -0.2782 H   0  0  0  0  0  0  0  0  0  0  0  0
    8.1604   -1.6126   -0.9519 H   0  0  0  0  0  0  0  0  0  0  0  0
    8.4004    0.0742    1.1364 H   0  0  0  0  0  0  0  0  0  0  0  0
    5.8359   -0.4473    2.5347 H   0  0  0  0  0  0  0  0  0  0  0  0
    6.6117    1.0993    2.2899 H   0  0  0  0  0  0  0  0  0  0  0  0
    9.3925   -0.1426    5.6513 H   0  0  0  0  0  0  0  0  0  0  0  0
   10.8491    2.7153    3.6944 H   0  0  0  0  0  0  0  0  0  0  0  0
   14.6155    2.2137    5.1950 H   0  0  0  0  0  0  0  0  0  0  0  0
   15.0887    0.7585    7.1642 H   0  0  0  0  0  0  0  0  0  0  0  0
   14.3202   -0.8993    8.8162 H   0  0  0  0  0  0  0  0  0  0  0  0
   11.9780   -1.7041    8.7658 H   0  0  0  0  0  0  0  0  0  0  0  0
   10.4084   -0.8340    7.1457 H   0  0  0  0  0  0  0  0  0  0  0  0
    8.2652   -1.5556    5.3503 H   0  0  0  0  0  0  0  0  0  0  0  0
    8.3698   -1.9721    3.6620 H   0  0  0  0  0  0  0  0  0  0  0  0
    6.6950   -3.3195    4.8242 H   0  0  0  0  0  0  0  0  0  0  0  0
    5.7787   -2.2836    3.7398 H   0  0  0  0  0  0  0  0  0  0  0  0
    3.9662   -0.6792    7.1557 H   0  0  0  0  0  0  0  0  0  0  0  0
    3.4916    1.7418    7.3619 H   0  0  0  0  0  0  0  0  0  0  0  0
    6.6411    2.6084    4.5719 H   0  0  0  0  0  0  0  0  0  0  0  0
  1  2  1  0  0  0  0
  1 33  1  0  0  0  0
  1 34  1  0  0  0  0
  1 35  1  0  0  0  0
  2  3  1  0  0  0  0
  2  4  1  0  0  0  0
  3 36  1  0  0  0  0
  3 37  1  0  0  0  0
  3 38  1  0  0  0  0
  4  5  1  0  0  0  0
  4 39  1  0  0  0  0
  4 40  1  0  0  0  0
  5  6  2  0  0  0  0
  5  7  1  0  0  0  0
  7  8  1  0  0  0  0
  7 41  1  0  0  0  0
  8  9  1  0  0  0  0
  8 42  1  0  0  0  0
  8 43  1  0  0  0  0
  9 10  1  0  0  0  0
  9 23  1  0  0  0  0
  9 32  1  0  0  0  0
 10 11  2  0  0  0  0
 10 12  1  0  0  0  0
 12 13  1  0  0  0  0
 12 44  1  0  0  0  0
 13 14  1  0  0  0  0
 13 22  2  0  0  0  0
 14 15  2  0  0  0  0
 14 45  1  0  0  0  0
 15 16  1  0  0  0  0
 16 17  2  0  0  0  0
 16 46  1  0  0  0  0
 17 18  1  0  0  0  0
 17 22  1  0  0  0  0
 18 19  2  0  0  0  0
 18 47  1  0  0  0  0
 19 20  1  0  0  0  0
 19 48  1  0  0  0  0
 20 21  2  0  0  0  0
 20 49  1  0  0  0  0
 21 22  1  0  0  0  0
 21 50  1  0  0  0  0
 23 24  1  0  0  0  0
 23 51  1  0  0  0  0
 23 52  1  0  0  0  0
 24 25  1  0  0  0  0
 24 53  1  0  0  0  0
 24 54  1  0  0  0  0
 25 26  1  0  0  0  0
 26 27  1  0  0  0  0
 26 32  2  0  0  0  0
 27 28  2  0  0  0  0
 27 55  1  0  0  0  0
 28 29  1  0  0  0  0
 28 56  1  0  0  0  0
 29 30  1  0  0  0  0
 29 31  2  0  0  0  0
 31 32  1  0  0  0  0
 31 57  1  0  0  0  0
M  END
$$$$
