
 OpenBabel07202414123D

 29 30  0  0  1  0  0  0  0  0999 V2000
    0.9915   -0.0534   -0.0816 C   0  0  0  0  0  0  0  0  0  0  0  0
    2.5262   -0.0849   -0.0937 C   0  0  3  0  0  0  0  0  0  0  0  0
    3.1251   -0.6657    1.2075 C   0  0  0  0  0  0  0  0  0  0  0  0
    2.7842    0.0742    2.4113 N   0  0  0  0  0  0  0  0  0  0  0  0
    1.7074   -0.1955    3.2168 C   0  0  0  0  0  0  0  0  0  0  0  0
    1.7824    0.7180    4.2390 C   0  0  0  0  0  0  0  0  0  0  0  0
    2.8868    1.5152    4.0916 N   0  0  0  0  0  0  0  0  0  0  0  0
    3.4872    1.1072    2.9870 C   0  0  0  0  0  0  0  0  0  0  0  0
    4.6955    1.6810    2.4773 C   0  0  0  0  0  0  0  0  0  0  0  0
    5.6675    2.1140    2.0227 N   0  0  0  0  0  0  0  0  0  0  0  0
    3.0235   -0.8720   -1.3019 C   0  0  0  0  0  0  0  0  0  0  0  0
    3.8278   -0.2537   -2.2719 C   0  0  0  0  0  0  0  0  0  0  0  0
    4.3084   -0.9784   -3.3682 C   0  0  0  0  0  0  0  0  0  0  0  0
    3.9928   -2.3290   -3.5115 C   0  0  0  0  0  0  0  0  0  0  0  0
    3.1862   -2.9482   -2.5629 C   0  0  0  0  0  0  0  0  0  0  0  0
    2.7007   -2.2301   -1.4687 C   0  0  0  0  0  0  0  0  0  0  0  0
    2.7916   -4.6151   -2.7274 Cl  0  0  0  0  0  0  0  0  0  0  0  0
    0.6093    0.5514    0.7452 H   0  0  0  0  0  0  0  0  0  0  0  0
    0.5602   -1.0561    0.0122 H   0  0  0  0  0  0  0  0  0  0  0  0
    0.6060    0.3880   -1.0078 H   0  0  0  0  0  0  0  0  0  0  0  0
    2.8656    0.9557   -0.1883 H   0  0  0  0  0  0  0  0  0  0  0  0
    4.2200   -0.7029    1.1443 H   0  0  0  0  0  0  0  0  0  0  0  0
    2.7920   -1.6985    1.3699 H   0  0  0  0  0  0  0  0  0  0  0  0
    0.9920   -0.9757    2.9959 H   0  0  0  0  0  0  0  0  0  0  0  0
    1.1028    0.8430    5.0725 H   0  0  0  0  0  0  0  0  0  0  0  0
    4.0927    0.7988   -2.1866 H   0  0  0  0  0  0  0  0  0  0  0  0
    4.9359   -0.4894   -4.1107 H   0  0  0  0  0  0  0  0  0  0  0  0
    4.3777   -2.8898   -4.3588 H   0  0  0  0  0  0  0  0  0  0  0  0
    2.0686   -2.7405   -0.7461 H   0  0  0  0  0  0  0  0  0  0  0  0
  1  2  1  0  0  0  0
  1 18  1  0  0  0  0
  1 19  1  0  0  0  0
  1 20  1  0  0  0  0
  2  3  1  0  0  0  0
  2 11  1  0  0  0  0
  2 21  1  0  0  0  0
  3  4  1  0  0  0  0
  3 22  1  0  0  0  0
  3 23  1  0  0  0  0
  4  5  1  0  0  0  0
  4  8  1  0  0  0  0
  5  6  2  0  0  0  0
  5 24  1  0  0  0  0
  6  7  1  0  0  0  0
  6 25  1  0  0  0  0
  7  8  2  0  0  0  0
  8  9  1  0  0  0  0
  9 10  3  0  0  0  0
 11 12  1  0  0  0  0
 11 16  2  0  0  0  0
 12 13  2  0  0  0  0
 12 26  1  0  0  0  0
 13 14  1  0  0  0  0
 13 27  1  0  0  0  0
 14 15  2  0  0  0  0
 14 28  1  0  0  0  0
 15 16  1  0  0  0  0
 15 17  1  0  0  0  0
 16 29  1  0  0  0  0
M  END
$$$$
