
 OpenBabel07202414153D

 62 65  0  0  1  0  0  0  0  0999 V2000
    0.6922    1.7509    1.8448 C   0  0  0  0  0  0  0  0  0  0  0  0
    2.0718    1.7874    1.4994 O   0  0  0  0  0  0  0  0  0  0  0  0
    2.8977    1.5996    2.6510 C   0  0  0  0  0  0  0  0  0  0  0  0
    4.3571    1.5680    2.2729 C   0  0  0  0  0  0  0  0  0  0  0  0
    4.9149    2.4816    1.3831 C   0  0  0  0  0  0  0  0  0  0  0  0
    6.2702    2.3891    1.0094 C   0  0  0  0  0  0  0  0  0  0  0  0
    7.1376    1.4203    1.5484 C   0  0  0  0  0  0  0  0  0  0  0  0
    8.5216    1.2486    1.1020 N   0  0  0  0  0  0  0  0  0  0  0  0
    9.2070   -0.0842    1.2610 C   0  0  3  0  0  0  0  0  0  0  0  0
    9.9433   -0.2519    2.6308 C   0  0  0  0  0  0  0  0  0  0  0  0
    9.6477    0.3961    3.6363 O   0  0  0  0  0  0  0  0  0  0  0  0
   10.9578   -1.2083    2.6578 N   0  0  0  0  0  0  0  0  0  0  0  0
   11.8599   -1.3119    3.8066 C   0  0  0  0  0  0  0  0  0  0  0  0
   12.6395   -2.6324    3.8170 C   0  0  0  0  0  0  0  0  0  0  0  0
   13.4836   -2.8610    5.0538 C   0  0  0  0  0  0  0  0  0  0  0  0
   12.9261   -3.4732    6.1900 C   0  0  0  0  0  0  0  0  0  0  0  0
   13.7135   -3.7573    7.3133 C   0  0  0  0  0  0  0  0  0  0  0  0
   15.0667   -3.4235    7.3181 C   0  0  0  0  0  0  0  0  0  0  0  0
   15.6166   -2.8026    6.2060 C   0  0  0  0  0  0  0  0  0  0  0  0
   16.9186   -2.4879    6.2072 F   0  0  0  0  0  0  0  0  0  0  0  0
   14.8420   -2.5140    5.0807 C   0  0  0  0  0  0  0  0  0  0  0  0
    8.4671   -1.3531    0.7898 C   0  0  0  0  0  0  0  0  0  0  0  0
    7.6364   -2.1541    1.5850 C   0  0  0  0  0  0  0  0  0  0  0  0
    7.0532   -3.3150    1.0739 C   0  0  0  0  0  0  0  0  0  0  0  0
    7.3781   -3.7007   -0.2104 C   0  0  0  0  0  0  0  0  0  0  0  0
    8.1995   -2.9905   -1.0079 N   0  0  0  0  0  0  0  0  0  0  0  0
    8.6984   -1.8341   -0.5024 C   0  0  0  0  0  0  0  0  0  0  0  0
    9.2279    2.4040    0.6349 C   0  0  0  0  0  0  0  0  0  0  0  0
    8.7006    3.5157    0.5594 O   0  0  0  0  0  0  0  0  0  0  0  0
   10.6589    2.3534    0.2180 C   0  0  0  0  0  0  0  0  0  0  0  0
   11.3047    3.4349   -0.3650 C   0  0  0  0  0  0  0  0  0  0  0  0
   12.5969    3.0546   -0.5799 N   0  0  0  0  0  0  0  0  0  0  0  0
   12.7105    1.7739   -0.1243 C   0  0  0  0  0  0  0  0  0  0  0  0
   11.5767    1.3229    0.3638 N   0  0  0  0  0  0  0  0  0  0  0  0
    6.5870    0.6288    2.5557 C   0  0  0  0  0  0  0  0  0  0  0  0
    5.2201    0.6524    2.8773 C   0  0  0  0  0  0  0  0  0  0  0  0
    0.0991    1.8897    0.9365 H   0  0  0  0  0  0  0  0  0  0  0  0
    0.4511    2.5558    2.5458 H   0  0  0  0  0  0  0  0  0  0  0  0
    0.4303    0.7821    2.2835 H   0  0  0  0  0  0  0  0  0  0  0  0
    2.6190    0.6480    3.1215 H   0  0  0  0  0  0  0  0  0  0  0  0
    2.7279    2.4117    3.3653 H   0  0  0  0  0  0  0  0  0  0  0  0
    4.2967    3.2652    0.9485 H   0  0  0  0  0  0  0  0  0  0  0  0
    6.5971    3.1032    0.2592 H   0  0  0  0  0  0  0  0  0  0  0  0
   10.0223   -0.0687    0.5429 H   0  0  0  0  0  0  0  0  0  0  0  0
   11.3001   -1.5368    1.7623 H   0  0  0  0  0  0  0  0  0  0  0  0
   11.2749   -1.1972    4.7256 H   0  0  0  0  0  0  0  0  0  0  0  0
   12.5511   -0.4620    3.7522 H   0  0  0  0  0  0  0  0  0  0  0  0
   13.2829   -2.6864    2.9290 H   0  0  0  0  0  0  0  0  0  0  0  0
   11.9397   -3.4719    3.7143 H   0  0  0  0  0  0  0  0  0  0  0  0
   11.8754   -3.7530    6.2005 H   0  0  0  0  0  0  0  0  0  0  0  0
   13.2703   -4.2472    8.1771 H   0  0  0  0  0  0  0  0  0  0  0  0
   15.6915   -3.6526    8.1775 H   0  0  0  0  0  0  0  0  0  0  0  0
   15.3196   -2.0407    4.2293 H   0  0  0  0  0  0  0  0  0  0  0  0
    7.4263   -1.9179    2.6212 H   0  0  0  0  0  0  0  0  0  0  0  0
    6.3738   -3.9098    1.6752 H   0  0  0  0  0  0  0  0  0  0  0  0
    6.9839   -4.6184   -0.6375 H   0  0  0  0  0  0  0  0  0  0  0  0
    9.3487   -1.3054   -1.1962 H   0  0  0  0  0  0  0  0  0  0  0  0
   10.9338    4.4205   -0.6365 H   0  0  0  0  0  0  0  0  0  0  0  0
   13.3259    3.6235   -0.9800 H   0  0  0  0  0  0  0  0  0  0  0  0
   13.6466    1.2356   -0.1760 H   0  0  0  0  0  0  0  0  0  0  0  0
    7.2175   -0.0048    3.1644 H   0  0  0  0  0  0  0  0  0  0  0  0
    4.8458   -0.0474    3.6208 H   0  0  0  0  0  0  0  0  0  0  0  0
  1  2  1  0  0  0  0
  1 37  1  0  0  0  0
  1 38  1  0  0  0  0
  1 39  1  0  0  0  0
  2  3  1  0  0  0  0
  3  4  1  0  0  0  0
  3 40  1  0  0  0  0
  3 41  1  0  0  0  0
  4  5  1  0  0  0  0
  4 36  2  0  0  0  0
  5  6  2  0  0  0  0
  5 42  1  0  0  0  0
  6  7  1  0  0  0  0
  6 43  1  0  0  0  0
  7  8  1  0  0  0  0
  7 35  2  0  0  0  0
  8  9  1  0  0  0  0
  8 28  1  0  0  0  0
  9 10  1  0  0  0  0
  9 22  1  0  0  0  0
  9 44  1  0  0  0  0
 10 11  2  0  0  0  0
 10 12  1  0  0  0  0
 12 13  1  0  0  0  0
 12 45  1  0  0  0  0
 13 14  1  0  0  0  0
 13 46  1  0  0  0  0
 13 47  1  0  0  0  0
 14 15  1  0  0  0  0
 14 48  1  0  0  0  0
 14 49  1  0  0  0  0
 15 16  1  0  0  0  0
 15 21  2  0  0  0  0
 16 17  2  0  0  0  0
 16 50  1  0  0  0  0
 17 18  1  0  0  0  0
 17 51  1  0  0  0  0
 18 19  2  0  0  0  0
 18 52  1  0  0  0  0
 19 20  1  0  0  0  0
 19 21  1  0  0  0  0
 21 53  1  0  0  0  0
 22 23  1  0  0  0  0
 22 27  2  0  0  0  0
 23 24  2  0  0  0  0
 23 54  1  0  0  0  0
 24 25  1  0  0  0  0
 24 55  1  0  0  0  0
 25 26  2  0  0  0  0
 25 56  1  0  0  0  0
 26 27  1  0  0  0  0
 27 57  1  0  0  0  0
 28 29  2  0  0  0  0
 28 30  1  0  0  0  0
 30 31  2  0  0  0  0
 30 34  1  0  0  0  0
 31 32  1  0  0  0  0
 31 58  1  0  0  0  0
 32 33  1  0  0  0  0
 32 59  1  0  0  0  0
 33 34  2  0  0  0  0
 33 60  1  0  0  0  0
 35 36  1  0  0  0  0
 35 61  1  0  0  0  0
 36 62  1  0  0  0  0
M  END
$$$$
