
 OpenBabel07202414153D

 52 55  0  0  1  0  0  0  0  0999 V2000
    6.6031   -1.2708    2.0156 C   0  0  0  0  0  0  0  0  0  0  0  0
    6.1227   -0.1335    1.3175 O   0  0  0  0  0  0  0  0  0  0  0  0
    4.7546    0.2097    1.5595 C   0  0  1  0  0  0  0  0  0  0  0  0
    4.4822    0.5627    3.0139 C   0  0  0  0  0  0  0  0  0  0  0  0
    4.3498    1.3681    0.6214 C   0  0  0  0  0  0  0  0  0  0  0  0
    5.0948    2.6408    0.7356 N   0  0  0  0  0  0  0  0  0  0  0  0
    6.5485    2.6495    0.5494 C   0  0  0  0  0  0  0  0  0  0  0  0
    6.9902    3.5861   -0.5685 C   0  0  1  0  0  0  0  0  0  0  0  0
    6.7206    2.9518   -1.9353 C   0  0  0  0  0  0  0  0  0  0  0  0
    7.6572    2.6816   -2.6826 O   0  0  0  0  0  0  0  0  0  0  0  0
    5.3854    2.7245   -2.2112 N   0  0  0  0  0  0  0  0  0  0  0  0
    4.8225    2.1439   -3.3712 C   0  0  0  0  0  0  0  0  0  0  0  0
    5.5982    1.5029   -4.3361 C   0  0  0  0  0  0  0  0  0  0  0  0
    5.1315    1.0785   -5.5313 N   0  0  0  0  0  0  0  0  0  0  0  0
    3.8180    1.2738   -5.7652 C   0  0  0  0  0  0  0  0  0  0  0  0
    2.9134    1.7839   -4.8340 C   0  0  0  0  0  0  0  0  0  0  0  0
    1.5393    1.8541   -5.1266 C   0  0  0  0  0  0  0  0  0  0  0  0
    0.6342    2.3345   -4.1850 C   0  0  0  0  0  0  0  0  0  0  0  0
    1.0948    2.7710   -2.9516 C   0  0  0  0  0  0  0  0  0  0  0  0
    2.4616    2.7273   -2.6589 C   0  0  0  0  0  0  0  0  0  0  0  0
    3.4149    2.2273   -3.5885 C   0  0  0  0  0  0  0  0  0  0  0  0
    6.3506    4.9426   -0.3769 C   0  0  0  0  0  0  0  0  0  0  0  0
    6.9597    6.0867   -0.9208 C   0  0  0  0  0  0  0  0  0  0  0  0
    6.3727    7.3389   -0.7478 C   0  0  0  0  0  0  0  0  0  0  0  0
    7.1219    8.7311   -1.4253 Cl  0  0  0  0  0  0  0  0  0  0  0  0
    5.1813    7.4672   -0.0351 C   0  0  0  0  0  0  0  0  0  0  0  0
    4.5579    6.3354    0.5002 C   0  0  0  0  0  0  0  0  0  0  0  0
    5.1443    5.0674    0.3400 C   0  0  0  0  0  0  0  0  0  0  0  0
    4.4015    3.8519    0.7987 C   0  0  0  0  0  0  0  0  0  0  0  0
    3.2082    3.9347    1.0654 O   0  0  0  0  0  0  0  0  0  0  0  0
    7.6240   -1.4636    1.6685 H   0  0  0  0  0  0  0  0  0  0  0  0
    5.9876   -2.1462    1.8024 H   0  0  0  0  0  0  0  0  0  0  0  0
    6.6467   -1.0721    3.0880 H   0  0  0  0  0  0  0  0  0  0  0  0
    4.1386   -0.6549    1.2793 H   0  0  0  0  0  0  0  0  0  0  0  0
    5.2086    1.2893    3.3880 H   0  0  0  0  0  0  0  0  0  0  0  0
    4.5605   -0.3296    3.6437 H   0  0  0  0  0  0  0  0  0  0  0  0
    3.4716    0.9633    3.1393 H   0  0  0  0  0  0  0  0  0  0  0  0
    3.2770    1.5639    0.7333 H   0  0  0  0  0  0  0  0  0  0  0  0
    4.4963    1.0301   -0.4094 H   0  0  0  0  0  0  0  0  0  0  0  0
    6.9320    1.6534    0.3352 H   0  0  0  0  0  0  0  0  0  0  0  0
    6.9744    2.9823    1.5040 H   0  0  0  0  0  0  0  0  0  0  0  0
    8.0797    3.7029   -0.4831 H   0  0  0  0  0  0  0  0  0  0  0  0
    4.7270    3.1027   -1.5477 H   0  0  0  0  0  0  0  0  0  0  0  0
    6.6496    1.2843   -4.1800 H   0  0  0  0  0  0  0  0  0  0  0  0
    3.4988    0.9875   -6.7636 H   0  0  0  0  0  0  0  0  0  0  0  0
    1.1628    1.5129   -6.0892 H   0  0  0  0  0  0  0  0  0  0  0  0
   -0.4282    2.3590   -4.4114 H   0  0  0  0  0  0  0  0  0  0  0  0
    0.3945    3.1462   -2.2087 H   0  0  0  0  0  0  0  0  0  0  0  0
    2.7523    3.0749   -1.6719 H   0  0  0  0  0  0  0  0  0  0  0  0
    7.8849    5.9980   -1.4895 H   0  0  0  0  0  0  0  0  0  0  0  0
    4.7204    8.4442    0.0890 H   0  0  0  0  0  0  0  0  0  0  0  0
    3.6162    6.4392    1.0294 H   0  0  0  0  0  0  0  0  0  0  0  0
  1  2  1  0  0  0  0
  1 31  1  0  0  0  0
  1 32  1  0  0  0  0
  1 33  1  0  0  0  0
  2  3  1  0  0  0  0
  3  4  1  0  0  0  0
  3  5  1  0  0  0  0
  3 34  1  6  0  0  0
  4 35  1  0  0  0  0
  4 36  1  0  0  0  0
  4 37  1  0  0  0  0
  5  6  1  0  0  0  0
  5 38  1  0  0  0  0
  5 39  1  0  0  0  0
  6  7  1  0  0  0  0
  6 29  1  0  0  0  0
  7  8  1  0  0  0  0
  7 40  1  0  0  0  0
  7 41  1  0  0  0  0
  8  9  1  0  0  0  0
  8 22  1  0  0  0  0
  8 42  1  1  0  0  0
  9 10  2  0  0  0  0
  9 11  1  0  0  0  0
 11 12  1  0  0  0  0
 11 43  1  0  0  0  0
 12 13  1  0  0  0  0
 12 21  2  0  0  0  0
 13 14  2  0  0  0  0
 13 44  1  0  0  0  0
 14 15  1  0  0  0  0
 15 16  2  0  0  0  0
 15 45  1  0  0  0  0
 16 17  1  0  0  0  0
 16 21  1  0  0  0  0
 17 18  2  0  0  0  0
 17 46  1  0  0  0  0
 18 19  1  0  0  0  0
 18 47  1  0  0  0  0
 19 20  2  0  0  0  0
 19 48  1  0  0  0  0
 20 21  1  0  0  0  0
 20 49  1  0  0  0  0
 22 23  1  0  0  0  0
 22 28  2  0  0  0  0
 23 24  2  0  0  0  0
 23 50  1  0  0  0  0
 24 25  1  0  0  0  0
 24 26  1  0  0  0  0
 26 27  2  0  0  0  0
 26 51  1  0  0  0  0
 27 28  1  0  0  0  0
 27 52  1  0  0  0  0
 28 29  1  0  0  0  0
 29 30  2  0  0  0  0
M  END
$$$$
