
 OpenBabel07202414133D

 50 53  0  0  0  0  0  0  0  0999 V2000
    2.3931    0.5489   -1.6358 C   0  0  0  0  0  0  0  0  0  0  0  0
    0.9484    0.3842   -1.2971 C   0  0  0  0  0  0  0  0  0  0  0  0
    0.0671    1.4472   -1.3951 C   0  0  0  0  0  0  0  0  0  0  0  0
   -1.2325    1.3867   -1.0314 N   0  0  0  0  0  0  0  0  0  0  0  0
   -1.7517    0.2124   -0.5805 C   0  0  0  0  0  0  0  0  0  0  0  0
   -3.1317    0.1654   -0.2432 N   0  0  0  0  0  0  0  0  0  0  0  0
   -3.9783    1.3024   -0.2294 C   0  0  0  0  0  0  0  0  0  0  0  0
   -3.9424    2.2349   -1.2742 C   0  0  0  0  0  0  0  0  0  0  0  0
   -4.5881    3.4726   -1.1771 C   0  0  0  0  0  0  0  0  0  0  0  0
   -4.3779    4.5007   -2.2563 C   0  0  0  0  0  0  0  0  0  0  0  0
   -3.2045    5.4545   -2.0835 C   0  0  0  0  0  0  0  0  0  0  0  0
   -3.0433    6.3512   -2.9120 O   0  0  0  0  0  0  0  0  0  0  0  0
   -2.3531    5.2294   -1.0110 N   0  0  0  0  0  0  0  0  0  0  0  0
   -1.2587    6.0946   -0.7370 C   0  0  0  0  0  0  0  0  0  0  0  0
   -0.0029    5.5224   -0.5442 C   0  0  0  0  0  0  0  0  0  0  0  0
    1.1468    6.2179   -0.4068 N   0  0  0  0  0  0  0  0  0  0  0  0
    1.0307    7.5647   -0.4403 C   0  0  0  0  0  0  0  0  0  0  0  0
   -0.1771    8.2603   -0.5400 C   0  0  0  0  0  0  0  0  0  0  0  0
   -0.2243    9.6671   -0.5047 C   0  0  0  0  0  0  0  0  0  0  0  0
   -1.4443   10.3404   -0.5417 C   0  0  0  0  0  0  0  0  0  0  0  0
   -2.6277    9.6171   -0.5975 C   0  0  0  0  0  0  0  0  0  0  0  0
   -2.5886    8.2226   -0.6501 C   0  0  0  0  0  0  0  0  0  0  0  0
   -1.3666    7.5071   -0.6609 C   0  0  0  0  0  0  0  0  0  0  0  0
   -5.3546    3.7476   -0.0421 C   0  0  0  0  0  0  0  0  0  0  0  0
   -5.4811    2.7824    0.9572 C   0  0  0  0  0  0  0  0  0  0  0  0
   -6.4422    3.1227    2.3444 Cl  0  0  0  0  0  0  0  0  0  0  0  0
   -4.8023    1.5644    0.8691 C   0  0  0  0  0  0  0  0  0  0  0  0
   -0.9278   -0.9115   -0.5207 C   0  0  0  0  0  0  0  0  0  0  0  0
   -1.4583   -2.1850   -0.1013 N   0  3  0  0  0  0  0  0  0  0  0  0
   -2.1443   -2.2025    0.9316 O   0  5  0  0  0  0  0  0  0  0  0  0
   -1.1718   -3.1724   -0.7912 O   0  0  0  0  0  0  0  0  0  0  0  0
    0.4324   -0.8290   -0.8462 C   0  0  0  0  0  0  0  0  0  0  0  0
    2.5902    1.5339   -2.0732 H   0  0  0  0  0  0  0  0  0  0  0  0
    2.7045   -0.2066   -2.3629 H   0  0  0  0  0  0  0  0  0  0  0  0
    3.0022    0.4573   -0.7308 H   0  0  0  0  0  0  0  0  0  0  0  0
    0.3843    2.4096   -1.7874 H   0  0  0  0  0  0  0  0  0  0  0  0
   -3.2862   -0.4321    0.5707 H   0  0  0  0  0  0  0  0  0  0  0  0
   -3.3472    2.0155   -2.1601 H   0  0  0  0  0  0  0  0  0  0  0  0
   -5.2829    5.1133   -2.3464 H   0  0  0  0  0  0  0  0  0  0  0  0
   -4.2430    3.9935   -3.2201 H   0  0  0  0  0  0  0  0  0  0  0  0
   -2.2360    4.2538   -0.7501 H   0  0  0  0  0  0  0  0  0  0  0  0
    0.1287    4.4465   -0.5410 H   0  0  0  0  0  0  0  0  0  0  0  0
    1.9762    8.0962   -0.3586 H   0  0  0  0  0  0  0  0  0  0  0  0
    0.6927   10.2482   -0.4379 H   0  0  0  0  0  0  0  0  0  0  0  0
   -1.4718   11.4262   -0.5146 H   0  0  0  0  0  0  0  0  0  0  0  0
   -3.5854   10.1303   -0.6098 H   0  0  0  0  0  0  0  0  0  0  0  0
   -3.5359    7.6906   -0.6813 H   0  0  0  0  0  0  0  0  0  0  0  0
   -5.8472    4.7111    0.0681 H   0  0  0  0  0  0  0  0  0  0  0  0
   -4.8860    0.8475    1.6810 H   0  0  0  0  0  0  0  0  0  0  0  0
    1.0821   -1.6968   -0.7513 H   0  0  0  0  0  0  0  0  0  0  0  0
  1  2  1  0  0  0  0
  1 33  1  0  0  0  0
  1 34  1  0  0  0  0
  1 35  1  0  0  0  0
  2  3  2  0  0  0  0
  2 32  1  0  0  0  0
  3  4  1  0  0  0  0
  3 36  1  0  0  0  0
  4  5  2  0  0  0  0
  5  6  1  0  0  0  0
  5 28  1  0  0  0  0
  6  7  1  0  0  0  0
  6 37  1  0  0  0  0
  7  8  2  0  0  0  0
  7 27  1  0  0  0  0
  8  9  1  0  0  0  0
  8 38  1  0  0  0  0
  9 10  1  0  0  0  0
  9 24  2  0  0  0  0
 10 11  1  0  0  0  0
 10 39  1  0  0  0  0
 10 40  1  0  0  0  0
 11 12  2  0  0  0  0
 11 13  1  0  0  0  0
 13 14  1  0  0  0  0
 13 41  1  0  0  0  0
 14 15  2  0  0  0  0
 14 23  1  0  0  0  0
 15 16  1  0  0  0  0
 15 42  1  0  0  0  0
 16 17  2  0  0  0  0
 17 18  1  0  0  0  0
 17 43  1  0  0  0  0
 18 19  2  0  0  0  0
 18 23  1  0  0  0  0
 19 20  1  0  0  0  0
 19 44  1  0  0  0  0
 20 21  2  0  0  0  0
 20 45  1  0  0  0  0
 21 22  1  0  0  0  0
 21 46  1  0  0  0  0
 22 23  2  0  0  0  0
 22 47  1  0  0  0  0
 24 25  1  0  0  0  0
 24 48  1  0  0  0  0
 25 26  1  0  0  0  0
 25 27  2  0  0  0  0
 27 49  1  0  0  0  0
 28 29  1  0  0  0  0
 28 32  2  0  0  0  0
 29 30  1  0  0  0  0
 29 31  2  0  0  0  0
 32 50  1  0  0  0  0
M  CHG  2  29   1  30  -1
M  END
$$$$
