
 OpenBabel07202414173D

 66 71  0  0  1  0  0  0  0  0999 V2000
    1.0544    0.1601    0.0697 Cl  0  0  0  0  0  0  0  0  0  0  0  0
    2.7682    0.0080    0.1013 C   0  0  0  0  0  0  0  0  0  0  0  0
    3.5639    1.1407   -0.0142 C   0  0  0  0  0  0  0  0  0  0  0  0
    4.9495    1.0060    0.0246 C   0  0  0  0  0  0  0  0  0  0  0  0
    5.5364   -0.2551    0.1818 C   0  0  0  0  0  0  0  0  0  0  0  0
    4.7512   -1.4148    0.2691 C   0  0  0  0  0  0  0  0  0  0  0  0
    3.3489   -1.2547    0.2427 C   0  0  0  0  0  0  0  0  0  0  0  0
    5.3903   -2.8180    0.4452 C   0  0  3  0  0  0  0  0  0  0  0  0
    4.7743   -3.7785   -0.6296 C   0  0  0  0  0  0  0  0  0  0  0  0
    5.3565   -5.1878   -0.7225 C   0  0  0  0  0  0  0  0  0  0  0  0
    6.3048   -5.5232   -0.0117 O   0  0  0  0  0  0  0  0  0  0  0  0
    4.7447   -6.0897   -1.5781 N   0  0  0  0  0  0  0  0  0  0  0  0
    5.0760   -7.5160   -1.4623 C   0  0  0  0  0  0  0  0  0  0  0  0
    5.8066   -8.0532   -2.6901 C   0  0  0  0  0  0  0  0  0  0  0  0
    5.0974   -7.6741   -3.9845 C   0  0  0  0  0  0  0  0  0  0  0  0
    4.7964   -6.1736   -4.0265 C   0  0  0  0  0  0  0  0  0  0  0  0
    3.9997   -5.7033   -2.7929 C   0  0  3  0  0  0  0  0  0  0  0  0
    2.5861   -6.2095   -2.7384 C   0  0  0  0  0  0  0  0  0  0  0  0
    1.7186   -6.4627   -3.8350 C   0  0  0  0  0  0  0  0  0  0  0  0
    0.5170   -6.9004   -3.4571 N   0  0  0  0  0  0  0  0  0  0  0  0
    0.5890   -6.9121   -2.1187 N   0  0  0  0  0  0  0  0  0  0  0  0
    1.7930   -6.4880   -1.6399 C   0  0  0  0  0  0  0  0  0  0  0  0
    5.0993   -3.3226    1.9128 C   0  0  0  0  0  0  0  0  0  0  0  0
    4.3497   -2.7020    2.6652 O   0  0  0  0  0  0  0  0  0  0  0  0
    5.7538   -4.4798    2.2881 N   0  0  0  0  0  0  0  0  0  0  0  0
    5.8481   -5.0486    3.5885 C   0  0  0  0  0  0  0  0  0  0  0  0
    5.0694   -4.6178    4.6639 C   0  0  0  0  0  0  0  0  0  0  0  0
    5.2161   -5.0439    5.9412 N   0  0  0  0  0  0  0  0  0  0  0  0
    6.1712   -5.9684    6.1606 C   0  0  0  0  0  0  0  0  0  0  0  0
    6.9557   -6.5478    5.1651 C   0  0  0  0  0  0  0  0  0  0  0  0
    7.8765   -7.5674    5.4737 C   0  0  0  0  0  0  0  0  0  0  0  0
    8.6556   -8.1514    4.4788 C   0  0  0  0  0  0  0  0  0  0  0  0
    8.5413   -7.7045    3.1720 C   0  0  0  0  0  0  0  0  0  0  0  0
    7.6373   -6.6849    2.8591 C   0  0  0  0  0  0  0  0  0  0  0  0
    6.8018   -6.0832    3.8374 C   0  0  0  0  0  0  0  0  0  0  0  0
    6.9153   -2.6740    0.1928 C   0  0  0  0  0  0  0  0  0  0  0  0
    7.4710   -1.4065    0.8141 C   0  0  0  0  0  0  0  0  0  0  0  0
    6.9014   -0.2495    0.2136 O   0  0  0  0  0  0  0  0  0  0  0  0
    3.1174    2.1252   -0.1199 H   0  0  0  0  0  0  0  0  0  0  0  0
    5.5798    1.8893   -0.0480 H   0  0  0  0  0  0  0  0  0  0  0  0
    2.6927   -2.1117    0.3746 H   0  0  0  0  0  0  0  0  0  0  0  0
    4.9058   -3.3033   -1.6096 H   0  0  0  0  0  0  0  0  0  0  0  0
    3.7001   -3.9043   -0.4502 H   0  0  0  0  0  0  0  0  0  0  0  0
    4.1420   -8.0682   -1.3154 H   0  0  0  0  0  0  0  0  0  0  0  0
    5.6804   -7.7054   -0.5705 H   0  0  0  0  0  0  0  0  0  0  0  0
    5.8890   -9.1441   -2.6208 H   0  0  0  0  0  0  0  0  0  0  0  0
    6.8273   -7.6538   -2.7110 H   0  0  0  0  0  0  0  0  0  0  0  0
    4.1669   -8.2471   -4.0775 H   0  0  0  0  0  0  0  0  0  0  0  0
    5.7197   -7.9501   -4.8430 H   0  0  0  0  0  0  0  0  0  0  0  0
    4.2732   -5.9256   -4.9567 H   0  0  0  0  0  0  0  0  0  0  0  0
    5.7529   -5.6347   -4.0553 H   0  0  0  0  0  0  0  0  0  0  0  0
    3.9339   -4.6138   -2.8583 H   0  0  0  0  0  0  0  0  0  0  0  0
    1.9189   -6.3570   -4.8920 H   0  0  0  0  0  0  0  0  0  0  0  0
   -0.2248   -7.2194   -1.5965 H   0  0  0  0  0  0  0  0  0  0  0  0
    1.9856   -6.4390   -0.5776 H   0  0  0  0  0  0  0  0  0  0  0  0
    6.2930   -4.9452    1.5631 H   0  0  0  0  0  0  0  0  0  0  0  0
    4.2588   -3.9059    4.5477 H   0  0  0  0  0  0  0  0  0  0  0  0
    6.2919   -6.2452    7.2052 H   0  0  0  0  0  0  0  0  0  0  0  0
    7.9816   -7.9241    6.4964 H   0  0  0  0  0  0  0  0  0  0  0  0
    9.3488   -8.9515    4.7230 H   0  0  0  0  0  0  0  0  0  0  0  0
    9.1495   -8.1455    2.3864 H   0  0  0  0  0  0  0  0  0  0  0  0
    7.6002   -6.3843    1.8179 H   0  0  0  0  0  0  0  0  0  0  0  0
    7.0990   -2.6286   -0.8899 H   0  0  0  0  0  0  0  0  0  0  0  0
    7.4933   -3.5169    0.5789 H   0  0  0  0  0  0  0  0  0  0  0  0
    8.5492   -1.3591    0.6228 H   0  0  0  0  0  0  0  0  0  0  0  0
    7.3346   -1.3724    1.9014 H   0  0  0  0  0  0  0  0  0  0  0  0
  1  2  1  0  0  0  0
  2  3  1  0  0  0  0
  2  7  2  0  0  0  0
  3  4  2  0  0  0  0
  3 39  1  0  0  0  0
  4  5  1  0  0  0  0
  4 40  1  0  0  0  0
  5  6  2  0  0  0  0
  5 38  1  0  0  0  0
  6  7  1  0  0  0  0
  6  8  1  0  0  0  0
  7 41  1  0  0  0  0
  8  9  1  0  0  0  0
  8 23  1  0  0  0  0
  8 36  1  0  0  0  0
  9 10  1  0  0  0  0
  9 42  1  0  0  0  0
  9 43  1  0  0  0  0
 10 11  2  0  0  0  0
 10 12  1  0  0  0  0
 12 13  1  0  0  0  0
 12 17  1  0  0  0  0
 13 14  1  0  0  0  0
 13 44  1  0  0  0  0
 13 45  1  0  0  0  0
 14 15  1  0  0  0  0
 14 46  1  0  0  0  0
 14 47  1  0  0  0  0
 15 16  1  0  0  0  0
 15 48  1  0  0  0  0
 15 49  1  0  0  0  0
 16 17  1  0  0  0  0
 16 50  1  0  0  0  0
 16 51  1  0  0  0  0
 17 18  1  0  0  0  0
 17 52  1  0  0  0  0
 18 19  1  0  0  0  0
 18 22  2  0  0  0  0
 19 20  2  0  0  0  0
 19 53  1  0  0  0  0
 20 21  1  0  0  0  0
 21 22  1  0  0  0  0
 21 54  1  0  0  0  0
 22 55  1  0  0  0  0
 23 24  2  0  0  0  0
 23 25  1  0  0  0  0
 25 26  1  0  0  0  0
 25 56  1  0  0  0  0
 26 27  1  0  0  0  0
 26 35  2  0  0  0  0
 27 28  2  0  0  0  0
 27 57  1  0  0  0  0
 28 29  1  0  0  0  0
 29 30  2  0  0  0  0
 29 58  1  0  0  0  0
 30 31  1  0  0  0  0
 30 35  1  0  0  0  0
 31 32  2  0  0  0  0
 31 59  1  0  0  0  0
 32 33  1  0  0  0  0
 32 60  1  0  0  0  0
 33 34  2  0  0  0  0
 33 61  1  0  0  0  0
 34 35  1  0  0  0  0
 34 62  1  0  0  0  0
 36 37  1  0  0  0  0
 36 63  1  0  0  0  0
 36 64  1  0  0  0  0
 37 38  1  0  0  0  0
 37 65  1  0  0  0  0
 37 66  1  0  0  0  0
M  END
$$$$
