
 OpenBabel07202414203D

 40 43  0  0  1  0  0  0  0  0999 V2000
    4.7348   -0.7546   -0.3331 C   0  0  0  0  0  0  0  0  0  0  0  0
    4.7789    0.5664    0.0932 C   0  0  0  0  0  0  0  0  0  0  0  0
    3.6295    1.3738    0.0390 C   0  0  0  0  0  0  0  0  0  0  0  0
    2.3921    0.8792   -0.4475 C   0  0  0  0  0  0  0  0  0  0  0  0
    2.3889   -0.4752   -0.8877 C   0  0  0  0  0  0  0  0  0  0  0  0
    3.5439   -1.2735   -0.8273 C   0  0  0  0  0  0  0  0  0  0  0  0
    1.2103   -1.0143   -1.3931 C   0  0  0  0  0  0  0  0  0  0  0  0
    0.0475   -0.3488   -1.4790 N   0  0  0  0  0  0  0  0  0  0  0  0
    0.0637    0.9383   -1.0589 C   0  0  0  0  0  0  0  0  0  0  0  0
    1.1768    1.6245   -0.5516 C   0  0  0  0  0  0  0  0  0  0  0  0
    1.0748    2.9963   -0.1262 N   0  0  0  0  0  0  0  0  0  0  0  0
    0.0669    3.8497   -0.5446 C   0  0  0  0  0  0  0  0  0  0  0  0
   -0.7477    3.5617   -1.4291 O   0  0  0  0  0  0  0  0  0  0  0  0
   -0.0960    5.2004    0.1376 C   0  0  3  0  0  0  0  0  0  0  0  0
   -0.3065    5.0780    1.6432 C   0  0  0  0  0  0  0  0  0  0  0  0
   -0.8756    6.4100    2.1006 C   0  0  0  0  0  0  0  0  0  0  0  0
    0.0537    7.4692    1.8984 O   0  0  0  0  0  0  0  0  0  0  0  0
    0.7098    7.4986    0.6893 C   0  0  0  0  0  0  0  0  0  0  0  0
    0.7960    6.3854   -0.1860 C   0  0  0  0  0  0  0  0  0  0  0  0
    1.5478    6.5534   -1.3626 C   0  0  0  0  0  0  0  0  0  0  0  0
    2.1499    7.7862   -1.6660 C   0  0  0  0  0  0  0  0  0  0  0  0
    2.0227    8.8779   -0.8124 C   0  0  0  0  0  0  0  0  0  0  0  0
    1.3164    8.7246    0.3701 C   0  0  0  0  0  0  0  0  0  0  0  0
    1.1766    9.7842    1.2246 O   0  0  0  0  0  0  0  0  0  0  0  0
    1.8044    5.3056   -2.5253 Cl  0  0  0  0  0  0  0  0  0  0  0  0
    5.6222   -1.3801   -0.2912 H   0  0  0  0  0  0  0  0  0  0  0  0
    5.7125    0.9746    0.4692 H   0  0  0  0  0  0  0  0  0  0  0  0
    3.7286    2.4013    0.3707 H   0  0  0  0  0  0  0  0  0  0  0  0
    3.5200   -2.3071   -1.1671 H   0  0  0  0  0  0  0  0  0  0  0  0
    1.1629   -2.0388   -1.7547 H   0  0  0  0  0  0  0  0  0  0  0  0
   -0.9177    1.3968   -1.1292 H   0  0  0  0  0  0  0  0  0  0  0  0
    1.8620    3.4008    0.3620 H   0  0  0  0  0  0  0  0  0  0  0  0
   -1.0699    5.5315   -0.2631 H   0  0  0  0  0  0  0  0  0  0  0  0
    0.6428    4.8776    2.1552 H   0  0  0  0  0  0  0  0  0  0  0  0
   -1.0019    4.2668    1.8843 H   0  0  0  0  0  0  0  0  0  0  0  0
   -1.1109    6.3760    3.1691 H   0  0  0  0  0  0  0  0  0  0  0  0
   -1.8101    6.6570    1.5787 H   0  0  0  0  0  0  0  0  0  0  0  0
    2.7094    7.9060   -2.5921 H   0  0  0  0  0  0  0  0  0  0  0  0
    2.4745    9.8264   -1.0851 H   0  0  0  0  0  0  0  0  0  0  0  0
    1.5789   10.5741    0.8305 H   0  0  0  0  0  0  0  0  0  0  0  0
  1  2  1  0  0  0  0
  1  6  2  0  0  0  0
  1 26  1  0  0  0  0
  2  3  2  0  0  0  0
  2 27  1  0  0  0  0
  3  4  1  0  0  0  0
  3 28  1  0  0  0  0
  4  5  1  0  0  0  0
  4 10  2  0  0  0  0
  5  6  1  0  0  0  0
  5  7  2  0  0  0  0
  6 29  1  0  0  0  0
  7  8  1  0  0  0  0
  7 30  1  0  0  0  0
  8  9  2  0  0  0  0
  9 10  1  0  0  0  0
  9 31  1  0  0  0  0
 10 11  1  0  0  0  0
 11 12  1  0  0  0  0
 11 32  1  0  0  0  0
 12 13  2  0  0  0  0
 12 14  1  0  0  0  0
 14 15  1  0  0  0  0
 14 19  1  0  0  0  0
 14 33  1  0  0  0  0
 15 16  1  0  0  0  0
 15 34  1  0  0  0  0
 15 35  1  0  0  0  0
 16 17  1  0  0  0  0
 16 36  1  0  0  0  0
 16 37  1  0  0  0  0
 17 18  1  0  0  0  0
 18 19  1  0  0  0  0
 18 23  2  0  0  0  0
 19 20  2  0  0  0  0
 20 21  1  0  0  0  0
 20 25  1  0  0  0  0
 21 22  2  0  0  0  0
 21 38  1  0  0  0  0
 22 23  1  0  0  0  0
 22 39  1  0  0  0  0
 23 24  1  0  0  0  0
 24 40  1  0  0  0  0
M  END
$$$$
