
 OpenBabel07202414163D

 51 53  0  0  1  0  0  0  0  0999 V2000
   -0.9016   -1.6834    4.6973 C   0  0  0  0  0  0  0  0  0  0  0  0
   -0.8758   -1.3222    3.2394 C   0  0  0  0  0  0  0  0  0  0  0  0
   -0.5964   -2.3686    2.3329 C   0  0  0  0  0  0  0  0  0  0  0  0
   -0.4561   -2.1309    0.9652 C   0  0  0  0  0  0  0  0  0  0  0  0
   -0.7222   -0.8563    0.4662 C   0  0  0  0  0  0  0  0  0  0  0  0
   -1.0572    0.1922    1.3326 C   0  0  0  0  0  0  0  0  0  0  0  0
   -1.1089   -0.0280    2.7306 C   0  0  0  0  0  0  0  0  0  0  0  0
   -1.5114    1.0617    3.4523 O   0  0  0  0  0  0  0  0  0  0  0  0
   -0.8592    1.3436    4.6765 C   0  0  0  0  0  0  0  0  0  0  0  0
    0.4830    1.2259    4.5367 F   0  0  0  0  0  0  0  0  0  0  0  0
   -1.1056    2.6473    4.9703 F   0  0  0  0  0  0  0  0  0  0  0  0
   -1.3303    1.5525    0.7517 C   0  0  0  0  0  0  0  0  0  0  0  0
   -0.0780   -3.1935   -0.0027 C   0  0  0  0  0  0  0  0  0  0  0  0
   -0.7209   -3.2441   -1.0505 O   0  0  0  0  0  0  0  0  0  0  0  0
    0.9951   -4.0582    0.2696 N   0  0  0  0  0  0  0  0  0  0  0  0
    1.4386   -4.9220   -0.8248 C   0  0  0  0  0  0  0  0  0  0  0  0
    2.0088   -6.2516   -0.3286 C   0  0  0  0  0  0  0  0  0  0  0  0
    3.0640   -6.1088    0.7908 C   0  0  0  0  0  0  0  0  0  0  0  0
    2.4670   -5.1887    1.8774 C   0  0  0  0  0  0  0  0  0  0  0  0
    1.9970   -3.8502    1.3131 C   0  0  0  0  0  0  0  0  0  0  0  0
    4.4635   -5.6317    0.3012 C   0  0  3  0  0  0  0  0  0  0  0  0
    5.1417   -6.5906   -0.6827 C   0  0  0  0  0  0  0  0  0  0  0  0
    6.0283   -7.4485    0.1937 C   0  0  0  0  0  0  0  0  0  0  0  0
    6.5724   -6.5017    1.1604 N   0  0  0  0  0  0  0  0  0  0  0  0
    5.4913   -5.5503    1.4494 C   0  0  0  0  0  0  0  0  0  0  0  0
   -0.7506   -2.7576    4.8504 H   0  0  0  0  0  0  0  0  0  0  0  0
   -1.8643   -1.4242    5.1442 H   0  0  0  0  0  0  0  0  0  0  0  0
   -0.0829   -1.1852    5.2264 H   0  0  0  0  0  0  0  0  0  0  0  0
   -0.4771   -3.3848    2.7040 H   0  0  0  0  0  0  0  0  0  0  0  0
   -0.6744   -0.6875   -0.6090 H   0  0  0  0  0  0  0  0  0  0  0  0
   -1.2294    0.7404    5.5076 H   0  0  0  0  0  0  0  0  0  0  0  0
   -1.2854    1.5407   -0.3439 H   0  0  0  0  0  0  0  0  0  0  0  0
   -0.5821    2.2717    1.1031 H   0  0  0  0  0  0  0  0  0  0  0  0
   -2.3305    1.8989    1.0306 H   0  0  0  0  0  0  0  0  0  0  0  0
    2.1937   -4.3647   -1.3908 H   0  0  0  0  0  0  0  0  0  0  0  0
    0.6107   -5.1283   -1.5128 H   0  0  0  0  0  0  0  0  0  0  0  0
    2.3931   -6.8180   -1.1810 H   0  0  0  0  0  0  0  0  0  0  0  0
    1.1760   -6.8447    0.0738 H   0  0  0  0  0  0  0  0  0  0  0  0
    3.1985   -7.1036    1.2368 H   0  0  0  0  0  0  0  0  0  0  0  0
    3.1701   -5.0079    2.6944 H   0  0  0  0  0  0  0  0  0  0  0  0
    1.6084   -5.7042    2.3305 H   0  0  0  0  0  0  0  0  0  0  0  0
    2.8248   -3.2878    0.8697 H   0  0  0  0  0  0  0  0  0  0  0  0
    1.6320   -3.2415    2.1351 H   0  0  0  0  0  0  0  0  0  0  0  0
    4.3647   -4.6525   -0.1810 H   0  0  0  0  0  0  0  0  0  0  0  0
    5.7660   -6.0132   -1.3777 H   0  0  0  0  0  0  0  0  0  0  0  0
    4.4599   -7.1966   -1.2813 H   0  0  0  0  0  0  0  0  0  0  0  0
    6.8233   -7.9416   -0.3744 H   0  0  0  0  0  0  0  0  0  0  0  0
    5.4473   -8.2229    0.7098 H   0  0  0  0  0  0  0  0  0  0  0  0
    7.3469   -5.9969    0.7308 H   0  0  0  0  0  0  0  0  0  0  0  0
    5.9007   -4.5368    1.5311 H   0  0  0  0  0  0  0  0  0  0  0  0
    5.0695   -5.8099    2.4234 H   0  0  0  0  0  0  0  0  0  0  0  0
  1  2  1  0  0  0  0
  1 26  1  0  0  0  0
  1 27  1  0  0  0  0
  1 28  1  0  0  0  0
  2  3  1  0  0  0  0
  2  7  2  0  0  0  0
  3  4  2  0  0  0  0
  3 29  1  0  0  0  0
  4  5  1  0  0  0  0
  4 13  1  0  0  0  0
  5  6  2  0  0  0  0
  5 30  1  0  0  0  0
  6  7  1  0  0  0  0
  6 12  1  0  0  0  0
  7  8  1  0  0  0  0
  8  9  1  0  0  0  0
  9 10  1  0  0  0  0
  9 11  1  0  0  0  0
  9 31  1  0  0  0  0
 12 32  1  0  0  0  0
 12 33  1  0  0  0  0
 12 34  1  0  0  0  0
 13 14  2  0  0  0  0
 13 15  1  0  0  0  0
 15 16  1  0  0  0  0
 15 20  1  0  0  0  0
 16 17  1  0  0  0  0
 16 35  1  0  0  0  0
 16 36  1  0  0  0  0
 17 18  1  0  0  0  0
 17 37  1  0  0  0  0
 17 38  1  0  0  0  0
 18 19  1  0  0  0  0
 18 21  1  0  0  0  0
 18 39  1  0  0  0  0
 19 20  1  0  0  0  0
 19 40  1  0  0  0  0
 19 41  1  0  0  0  0
 20 42  1  0  0  0  0
 20 43  1  0  0  0  0
 21 22  1  0  0  0  0
 21 25  1  0  0  0  0
 21 44  1  0  0  0  0
 22 23  1  0  0  0  0
 22 45  1  0  0  0  0
 22 46  1  0  0  0  0
 23 24  1  0  0  0  0
 23 47  1  0  0  0  0
 23 48  1  0  0  0  0
 24 25  1  0  0  0  0
 24 49  1  0  0  0  0
 25 50  1  0  0  0  0
 25 51  1  0  0  0  0
M  END
$$$$
