
 OpenBabel07202414173D

 44 47  0  0  1  0  0  0  0  0999 V2000
   11.5261    3.6133   -2.1690 Cl  0  0  0  0  0  0  0  0  0  0  0  0
   10.2441    2.6299   -1.5578 C   0  0  0  0  0  0  0  0  0  0  0  0
   10.1721    1.3049   -2.0044 C   0  0  0  0  0  0  0  0  0  0  0  0
    9.2078    0.4264   -1.5017 C   0  0  0  0  0  0  0  0  0  0  0  0
    8.2548    0.9181   -0.5939 C   0  0  0  0  0  0  0  0  0  0  0  0
    8.3124    2.2550   -0.1624 C   0  0  0  0  0  0  0  0  0  0  0  0
    9.3129    3.1059   -0.6335 C   0  0  0  0  0  0  0  0  0  0  0  0
    9.3587    4.7150   -0.0090 Cl  0  0  0  0  0  0  0  0  0  0  0  0
    7.2298   -0.0193    0.0182 C   0  0  3  0  0  0  0  0  0  0  0  0
    7.5513   -0.4242    1.4673 C   0  0  0  0  0  0  0  0  0  0  0  0
    6.6367   -0.7734    2.2116 O   0  0  0  0  0  0  0  0  0  0  0  0
    8.8923   -0.3959    1.8164 N   0  0  0  0  0  0  0  0  0  0  0  0
    9.4458   -0.7083    3.0807 C   0  0  0  0  0  0  0  0  0  0  0  0
    8.7464   -1.4327    4.0488 C   0  0  0  0  0  0  0  0  0  0  0  0
    9.2394   -1.7693    5.2639 N   0  0  0  0  0  0  0  0  0  0  0  0
   10.4903   -1.3592    5.5381 C   0  0  0  0  0  0  0  0  0  0  0  0
   11.2918   -0.6412    4.6548 C   0  0  0  0  0  0  0  0  0  0  0  0
   10.7587   -0.2928    3.3954 C   0  0  0  0  0  0  0  0  0  0  0  0
   11.6097    0.4934    2.4184 C   0  0  0  0  0  0  0  0  0  0  0  0
   12.7970    1.2103    3.0649 C   0  0  0  0  0  0  0  0  0  0  0  0
   13.5577    0.2645    3.9805 C   0  0  0  0  0  0  0  0  0  0  0  0
   12.6550   -0.1987    5.1174 C   0  0  0  0  0  0  0  0  0  0  0  0
    7.0315   -1.2788   -0.8307 C   0  0  0  0  0  0  0  0  0  0  0  0
    8.3761   -1.8601   -1.2344 C   0  0  0  0  0  0  0  0  0  0  0  0
    9.1403   -0.8775   -1.9906 N   0  0  0  0  0  0  0  0  0  0  0  0
   10.8895    0.9502   -2.7414 H   0  0  0  0  0  0  0  0  0  0  0  0
    7.5866    2.6234    0.5614 H   0  0  0  0  0  0  0  0  0  0  0  0
    6.2703    0.5152    0.0550 H   0  0  0  0  0  0  0  0  0  0  0  0
    9.5345   -0.0078    1.1409 H   0  0  0  0  0  0  0  0  0  0  0  0
    7.7437   -1.8105    3.8797 H   0  0  0  0  0  0  0  0  0  0  0  0
   10.8454   -1.6281    6.5298 H   0  0  0  0  0  0  0  0  0  0  0  0
   11.0075    1.2568    1.9151 H   0  0  0  0  0  0  0  0  0  0  0  0
   11.9816   -0.2017    1.6547 H   0  0  0  0  0  0  0  0  0  0  0  0
   12.4401    2.0729    3.6426 H   0  0  0  0  0  0  0  0  0  0  0  0
   13.4624    1.6000    2.2865 H   0  0  0  0  0  0  0  0  0  0  0  0
   14.4421    0.7636    4.3930 H   0  0  0  0  0  0  0  0  0  0  0  0
   13.9138   -0.5999    3.4064 H   0  0  0  0  0  0  0  0  0  0  0  0
   12.5184    0.6265    5.8285 H   0  0  0  0  0  0  0  0  0  0  0  0
   13.1523   -1.0161    5.6529 H   0  0  0  0  0  0  0  0  0  0  0  0
    6.4645   -1.0200   -1.7349 H   0  0  0  0  0  0  0  0  0  0  0  0
    6.4459   -2.0314   -0.2899 H   0  0  0  0  0  0  0  0  0  0  0  0
    8.2192   -2.7447   -1.8613 H   0  0  0  0  0  0  0  0  0  0  0  0
    8.9500   -2.1878   -0.3600 H   0  0  0  0  0  0  0  0  0  0  0  0
   10.0079   -1.2349   -2.3824 H   0  0  0  0  0  0  0  0  0  0  0  0
  1  2  1  0  0  0  0
  2  3  1  0  0  0  0
  2  7  2  0  0  0  0
  3  4  2  0  0  0  0
  3 26  1  0  0  0  0
  4  5  1  0  0  0  0
  4 25  1  0  0  0  0
  5  6  2  0  0  0  0
  5  9  1  0  0  0  0
  6  7  1  0  0  0  0
  6 27  1  0  0  0  0
  7  8  1  0  0  0  0
  9 10  1  0  0  0  0
  9 23  1  0  0  0  0
  9 28  1  0  0  0  0
 10 11  2  0  0  0  0
 10 12  1  0  0  0  0
 12 13  1  0  0  0  0
 12 29  1  0  0  0  0
 13 14  1  0  0  0  0
 13 18  2  0  0  0  0
 14 15  2  0  0  0  0
 14 30  1  0  0  0  0
 15 16  1  0  0  0  0
 16 17  2  0  0  0  0
 16 31  1  0  0  0  0
 17 18  1  0  0  0  0
 17 22  1  0  0  0  0
 18 19  1  0  0  0  0
 19 20  1  0  0  0  0
 19 32  1  0  0  0  0
 19 33  1  0  0  0  0
 20 21  1  0  0  0  0
 20 34  1  0  0  0  0
 20 35  1  0  0  0  0
 21 22  1  0  0  0  0
 21 36  1  0  0  0  0
 21 37  1  0  0  0  0
 22 38  1  0  0  0  0
 22 39  1  0  0  0  0
 23 24  1  0  0  0  0
 23 40  1  0  0  0  0
 23 41  1  0  0  0  0
 24 25  1  0  0  0  0
 24 42  1  0  0  0  0
 24 43  1  0  0  0  0
 25 44  1  0  0  0  0
M  END
$$$$
