
 OpenBabel07202414123D

 40 41  0  0  1  0  0  0  0  0999 V2000
    3.0494   -0.8126    1.1797 C   0  0  0  0  0  0  0  0  0  0  0  0
    2.5327   -0.0287   -0.0319 C   0  0  3  0  0  0  0  0  0  0  0  0
    3.0141    1.4093   -0.0181 C   0  0  0  0  0  0  0  0  0  0  0  0
    4.3882    1.7076    0.0003 C   0  0  0  0  0  0  0  0  0  0  0  0
    4.8762    3.0264    0.0453 C   0  0  0  0  0  0  0  0  0  0  0  0
    3.9308    4.0633    0.0235 C   0  0  0  0  0  0  0  0  0  0  0  0
    2.5630    3.7838   -0.0272 C   0  0  0  0  0  0  0  0  0  0  0  0
    2.1019    2.4688   -0.0413 C   0  0  0  0  0  0  0  0  0  0  0  0
    1.4314    5.0815   -0.0577 Cl  0  0  0  0  0  0  0  0  0  0  0  0
    6.3305    3.2869    0.1470 C   0  0  0  0  0  0  0  0  0  0  0  0
    6.9333    4.3915   -0.4806 C   0  0  0  0  0  0  0  0  0  0  0  0
    8.3039    4.6416   -0.3482 C   0  0  0  0  0  0  0  0  0  0  0  0
    9.0922    3.7809    0.4155 C   0  0  0  0  0  0  0  0  0  0  0  0
    8.5320    2.6598    1.0214 C   0  0  0  0  0  0  0  0  0  0  0  0
    7.1614    2.4277    0.8953 C   0  0  0  0  0  0  0  0  0  0  0  0
   10.8158    4.1056    0.6191 S   0  0  0  0  0  0  0  0  0  0  0  0
   11.4966    2.8765    0.9559 O   0  0  0  0  0  0  0  0  0  0  0  0
   11.2661    4.9806   -0.4372 O   0  0  0  0  0  0  0  0  0  0  0  0
   10.8083    5.0310    2.0201 N   0  0  0  0  0  0  0  0  0  0  0  0
    2.9455   -0.6591   -1.2722 N   0  0  0  0  0  0  0  0  0  0  0  0
    2.2859   -1.7395   -1.8108 C   0  0  0  0  0  0  0  0  0  0  0  0
    1.2221   -2.1619   -1.3599 O   0  0  0  0  0  0  0  0  0  0  0  0
    2.9054   -2.3144   -3.0706 C   0  0  0  0  0  0  0  0  0  0  0  0
    4.6840   -2.2787   -2.9851 Cl  0  0  0  0  0  0  0  0  0  0  0  0
    2.7357   -0.3385    2.1170 H   0  0  0  0  0  0  0  0  0  0  0  0
    4.1433   -0.8801    1.1912 H   0  0  0  0  0  0  0  0  0  0  0  0
    2.6680   -1.8393    1.1749 H   0  0  0  0  0  0  0  0  0  0  0  0
    1.4361   -0.0467    0.0071 H   0  0  0  0  0  0  0  0  0  0  0  0
    5.0985    0.8819   -0.0216 H   0  0  0  0  0  0  0  0  0  0  0  0
    4.2514    5.1015    0.0659 H   0  0  0  0  0  0  0  0  0  0  0  0
    1.0323    2.2727   -0.0701 H   0  0  0  0  0  0  0  0  0  0  0  0
    6.3428    5.0741   -1.0873 H   0  0  0  0  0  0  0  0  0  0  0  0
    8.7418    5.5120   -0.8341 H   0  0  0  0  0  0  0  0  0  0  0  0
    9.1424    1.9742    1.6049 H   0  0  0  0  0  0  0  0  0  0  0  0
    6.7451    1.5659    1.4138 H   0  0  0  0  0  0  0  0  0  0  0  0
   11.3120    4.5487    2.7636 H   0  0  0  0  0  0  0  0  0  0  0  0
   11.1516    5.9706    1.8215 H   0  0  0  0  0  0  0  0  0  0  0  0
    3.8798   -0.4710   -1.6204 H   0  0  0  0  0  0  0  0  0  0  0  0
    2.5827   -1.7300   -3.9367 H   0  0  0  0  0  0  0  0  0  0  0  0
    2.5986   -3.3565   -3.1866 H   0  0  0  0  0  0  0  0  0  0  0  0
  1  2  1  0  0  0  0
  1 25  1  0  0  0  0
  1 26  1  0  0  0  0
  1 27  1  0  0  0  0
  2  3  1  0  0  0  0
  2 20  1  0  0  0  0
  2 28  1  0  0  0  0
  3  4  1  0  0  0  0
  3  8  2  0  0  0  0
  4  5  2  0  0  0  0
  4 29  1  0  0  0  0
  5  6  1  0  0  0  0
  5 10  1  0  0  0  0
  6  7  2  0  0  0  0
  6 30  1  0  0  0  0
  7  8  1  0  0  0  0
  7  9  1  0  0  0  0
  8 31  1  0  0  0  0
 10 11  1  0  0  0  0
 10 15  2  0  0  0  0
 11 12  2  0  0  0  0
 11 32  1  0  0  0  0
 12 13  1  0  0  0  0
 12 33  1  0  0  0  0
 13 14  2  0  0  0  0
 13 16  1  0  0  0  0
 14 15  1  0  0  0  0
 14 34  1  0  0  0  0
 15 35  1  0  0  0  0
 16 17  2  0  0  0  0
 16 18  2  0  0  0  0
 16 19  1  0  0  0  0
 19 36  1  0  0  0  0
 19 37  1  0  0  0  0
 20 21  1  0  0  0  0
 20 38  1  0  0  0  0
 21 22  2  0  0  0  0
 21 23  1  0  0  0  0
 23 24  1  0  0  0  0
 23 39  1  0  0  0  0
 23 40  1  0  0  0  0
M  END
$$$$
