
 OpenBabel07202414193D

 34 36  0  0  0  0  0  0  0  0999 V2000
    1.8714   -1.2013    0.4755 O   0  0  0  0  0  0  0  0  0  0  0  0
    2.2631   -0.1161    0.0535 C   0  0  0  0  0  0  0  0  0  0  0  0
    2.9050   -0.0091   -1.3216 C   0  0  0  0  0  0  0  0  0  0  0  0
    1.9134    0.1459   -2.4500 C   0  0  0  0  0  0  0  0  0  0  0  0
    1.6013    1.4345   -2.8838 C   0  0  0  0  0  0  0  0  0  0  0  0
    0.7544    1.7251   -3.8898 N   0  0  0  0  0  0  0  0  0  0  0  0
    0.1781    0.6735   -4.5089 C   0  0  0  0  0  0  0  0  0  0  0  0
    0.3993   -0.6638   -4.1735 C   0  0  0  0  0  0  0  0  0  0  0  0
   -0.2378   -1.7056   -4.8735 C   0  0  0  0  0  0  0  0  0  0  0  0
   -0.0056   -3.0346   -4.5316 C   0  0  0  0  0  0  0  0  0  0  0  0
    0.8607   -3.3337   -3.4875 C   0  0  0  0  0  0  0  0  0  0  0  0
    1.4940   -2.3040   -2.7838 C   0  0  0  0  0  0  0  0  0  0  0  0
    1.2875   -0.9444   -3.1091 C   0  0  0  0  0  0  0  0  0  0  0  0
    2.1920    1.0950    0.7275 N   0  0  0  0  0  0  0  0  0  0  0  0
    1.7758    1.2911    2.0639 C   0  0  0  0  0  0  0  0  0  0  0  0
    1.6472    0.2542    2.9895 C   0  0  0  0  0  0  0  0  0  0  0  0
    1.2125    0.5124    4.2941 C   0  0  0  0  0  0  0  0  0  0  0  0
    0.9081    1.8132    4.6857 C   0  0  0  0  0  0  0  0  0  0  0  0
    1.0559    2.8594    3.7806 C   0  0  0  0  0  0  0  0  0  0  0  0
    1.5003    2.6016    2.4778 C   0  0  0  0  0  0  0  0  0  0  0  0
    3.5341   -0.8943   -1.4734 H   0  0  0  0  0  0  0  0  0  0  0  0
    3.6156    0.8281   -1.3290 H   0  0  0  0  0  0  0  0  0  0  0  0
    2.0520    2.3111   -2.4252 H   0  0  0  0  0  0  0  0  0  0  0  0
   -0.4934    0.9440   -5.3189 H   0  0  0  0  0  0  0  0  0  0  0  0
   -0.9207   -1.4842   -5.6908 H   0  0  0  0  0  0  0  0  0  0  0  0
   -0.5016   -3.8340   -5.0764 H   0  0  0  0  0  0  0  0  0  0  0  0
    1.0416   -4.3696   -3.2103 H   0  0  0  0  0  0  0  0  0  0  0  0
    2.1508   -2.5879   -1.9635 H   0  0  0  0  0  0  0  0  0  0  0  0
    2.3543    1.9373    0.1898 H   0  0  0  0  0  0  0  0  0  0  0  0
    1.8897   -0.7716    2.7316 H   0  0  0  0  0  0  0  0  0  0  0  0
    1.1119   -0.3080    5.0001 H   0  0  0  0  0  0  0  0  0  0  0  0
    0.5531    2.0082    5.6964 H   0  0  0  0  0  0  0  0  0  0  0  0
    0.8192    3.8754    4.0839 H   0  0  0  0  0  0  0  0  0  0  0  0
    1.6008    3.4384    1.7922 H   0  0  0  0  0  0  0  0  0  0  0  0
  1  2  2  0  0  0  0
  2  3  1  0  0  0  0
  2 14  1  0  0  0  0
  3  4  1  0  0  0  0
  3 21  1  0  0  0  0
  3 22  1  0  0  0  0
  4  5  1  0  0  0  0
  4 13  2  0  0  0  0
  5  6  2  0  0  0  0
  5 23  1  0  0  0  0
  6  7  1  0  0  0  0
  7  8  2  0  0  0  0
  7 24  1  0  0  0  0
  8  9  1  0  0  0  0
  8 13  1  0  0  0  0
  9 10  2  0  0  0  0
  9 25  1  0  0  0  0
 10 11  1  0  0  0  0
 10 26  1  0  0  0  0
 11 12  2  0  0  0  0
 11 27  1  0  0  0  0
 12 13  1  0  0  0  0
 12 28  1  0  0  0  0
 14 15  1  0  0  0  0
 14 29  1  0  0  0  0
 15 16  1  0  0  0  0
 15 20  2  0  0  0  0
 16 17  2  0  0  0  0
 16 30  1  0  0  0  0
 17 18  1  0  0  0  0
 17 31  1  0  0  0  0
 18 19  2  0  0  0  0
 18 32  1  0  0  0  0
 19 20  1  0  0  0  0
 19 33  1  0  0  0  0
 20 34  1  0  0  0  0
M  END
$$$$
