
 OpenBabel07202414183D

 64 69  0  0  1  0  0  0  0  0999 V2000
   11.2720   -8.6875    4.3023 F   0  0  0  0  0  0  0  0  0  0  0  0
   10.7166   -7.4728    4.0975 C   0  0  0  0  0  0  0  0  0  0  0  0
   11.6382   -6.5550    4.4674 F   0  0  0  0  0  0  0  0  0  0  0  0
    9.3070   -7.2733    4.6988 C   0  0  0  0  0  0  0  0  0  0  0  0
    8.9157   -6.4986    3.4121 C   0  0  0  0  0  0  0  0  0  0  0  0
    9.0277   -4.9876    3.5583 C   0  0  0  0  0  0  0  0  0  0  0  0
    8.6857   -4.3601    2.2957 N   0  0  0  0  0  0  0  0  0  0  0  0
    8.8152   -2.9808    2.1862 C   0  0  0  0  0  0  0  0  0  0  0  0
    9.3242   -2.3079    3.0858 O   0  0  0  0  0  0  0  0  0  0  0  0
    8.3008   -2.3428    0.8875 C   0  0  0  0  0  0  0  0  0  0  0  0
    9.3604   -2.2633   -0.1396 N   0  0  0  0  0  0  0  0  0  0  0  0
   10.4714   -1.3762    0.2393 C   0  0  0  0  0  0  0  0  0  0  0  0
   10.2158    0.1033    0.0446 C   0  0  0  0  0  0  0  0  0  0  0  0
   11.0355    1.0085    0.7471 C   0  0  0  0  0  0  0  0  0  0  0  0
   10.9141    2.3837    0.5591 C   0  0  0  0  0  0  0  0  0  0  0  0
    9.9647    2.8659   -0.3297 C   0  0  0  0  0  0  0  0  0  0  0  0
    9.8180    4.5614   -0.5885 Cl  0  0  0  0  0  0  0  0  0  0  0  0
    9.1442    1.9845   -1.0364 C   0  0  0  0  0  0  0  0  0  0  0  0
    9.2654    0.5869   -0.8797 C   0  0  0  0  0  0  0  0  0  0  0  0
    8.4194   -0.3947   -1.7075 C   0  0  3  0  0  0  0  0  0  0  0  0
    8.5370   -0.0870   -3.2158 C   0  0  0  0  0  0  0  0  0  0  0  0
    7.2925    0.6916   -3.6043 C   0  0  0  0  0  0  0  0  0  0  0  0
    6.3979    0.6517   -2.4801 N   0  0  0  0  0  0  0  0  0  0  0  0
    5.4108    1.6828   -2.2458 C   0  0  0  0  0  0  0  0  0  0  0  0
    5.0282    1.9820   -0.9293 C   0  0  0  0  0  0  0  0  0  0  0  0
    4.3903    3.1102   -0.5348 N   0  0  0  0  0  0  0  0  0  0  0  0
    4.0633    3.9837   -1.5031 C   0  0  0  0  0  0  0  0  0  0  0  0
    4.2343    3.7464   -2.8605 C   0  0  0  0  0  0  0  0  0  0  0  0
    3.7402    4.6718   -3.8014 C   0  0  0  0  0  0  0  0  0  0  0  0
    3.8312    4.4199   -5.1652 C   0  0  0  0  0  0  0  0  0  0  0  0
    4.4234    3.2471   -5.5992 C   0  0  0  0  0  0  0  0  0  0  0  0
    4.9395    2.3330   -4.6647 C   0  0  0  0  0  0  0  0  0  0  0  0
    4.8952    2.5549   -3.2664 C   0  0  0  0  0  0  0  0  0  0  0  0
    6.9106   -0.1884   -1.4704 C   0  0  0  0  0  0  0  0  0  0  0  0
    6.2784   -0.6417   -0.5268 O   0  0  0  0  0  0  0  0  0  0  0  0
    8.8520   -1.8729   -1.4684 C   0  0  0  0  0  0  0  0  0  0  0  0
   10.0761   -7.2498    2.7086 C   0  0  0  0  0  0  0  0  0  0  0  0
    9.2755   -6.7085    5.6349 H   0  0  0  0  0  0  0  0  0  0  0  0
    8.7604   -8.2128    4.8401 H   0  0  0  0  0  0  0  0  0  0  0  0
    7.9230   -6.7895    3.0434 H   0  0  0  0  0  0  0  0  0  0  0  0
   10.0384   -4.6704    3.8460 H   0  0  0  0  0  0  0  0  0  0  0  0
    8.3267   -4.6188    4.3103 H   0  0  0  0  0  0  0  0  0  0  0  0
    8.0700   -4.8257    1.6368 H   0  0  0  0  0  0  0  0  0  0  0  0
    7.8945   -1.3612    1.1484 H   0  0  0  0  0  0  0  0  0  0  0  0
    7.4741   -2.9611    0.5178 H   0  0  0  0  0  0  0  0  0  0  0  0
   11.3385   -1.6371   -0.3815 H   0  0  0  0  0  0  0  0  0  0  0  0
   10.7946   -1.5663    1.2678 H   0  0  0  0  0  0  0  0  0  0  0  0
   11.7875    0.6377    1.4426 H   0  0  0  0  0  0  0  0  0  0  0  0
   11.5625    3.0649    1.1029 H   0  0  0  0  0  0  0  0  0  0  0  0
    8.4194    2.4121   -1.7227 H   0  0  0  0  0  0  0  0  0  0  0  0
    8.5710   -1.0066   -3.8140 H   0  0  0  0  0  0  0  0  0  0  0  0
    9.4440    0.4735   -3.4732 H   0  0  0  0  0  0  0  0  0  0  0  0
    6.8179    0.1752   -4.4447 H   0  0  0  0  0  0  0  0  0  0  0  0
    7.5453    1.7180   -3.8857 H   0  0  0  0  0  0  0  0  0  0  0  0
    5.2687    1.3377   -0.0908 H   0  0  0  0  0  0  0  0  0  0  0  0
    3.6144    4.9052   -1.1375 H   0  0  0  0  0  0  0  0  0  0  0  0
    3.2477    5.5853   -3.4730 H   0  0  0  0  0  0  0  0  0  0  0  0
    3.4177    5.1213   -5.8812 H   0  0  0  0  0  0  0  0  0  0  0  0
    4.4750    3.0201   -6.6631 H   0  0  0  0  0  0  0  0  0  0  0  0
    5.3292    1.4084   -5.0723 H   0  0  0  0  0  0  0  0  0  0  0  0
    9.6769   -2.0956   -2.1609 H   0  0  0  0  0  0  0  0  0  0  0  0
    8.0498   -2.5599   -1.7701 H   0  0  0  0  0  0  0  0  0  0  0  0
   10.6747   -6.6684    2.0033 H   0  0  0  0  0  0  0  0  0  0  0  0
    9.7691   -8.1849    2.2248 H   0  0  0  0  0  0  0  0  0  0  0  0
  1  2  1  0  0  0  0
  2  3  1  0  0  0  0
  2  4  1  0  0  0  0
  2 37  1  0  0  0  0
  4  5  1  0  0  0  0
  4 38  1  0  0  0  0
  4 39  1  0  0  0  0
  5  6  1  0  0  0  0
  5 37  1  0  0  0  0
  5 40  1  0  0  0  0
  6  7  1  0  0  0  0
  6 41  1  0  0  0  0
  6 42  1  0  0  0  0
  7  8  1  0  0  0  0
  7 43  1  0  0  0  0
  8  9  2  0  0  0  0
  8 10  1  0  0  0  0
 10 11  1  0  0  0  0
 10 44  1  0  0  0  0
 10 45  1  0  0  0  0
 11 12  1  0  0  0  0
 11 36  1  0  0  0  0
 12 13  1  0  0  0  0
 12 46  1  0  0  0  0
 12 47  1  0  0  0  0
 13 14  1  0  0  0  0
 13 19  2  0  0  0  0
 14 15  2  0  0  0  0
 14 48  1  0  0  0  0
 15 16  1  0  0  0  0
 15 49  1  0  0  0  0
 16 17  1  0  0  0  0
 16 18  2  0  0  0  0
 18 19  1  0  0  0  0
 18 50  1  0  0  0  0
 19 20  1  0  0  0  0
 20 21  1  0  0  0  0
 20 34  1  0  0  0  0
 20 36  1  0  0  0  0
 21 22  1  0  0  0  0
 21 51  1  0  0  0  0
 21 52  1  0  0  0  0
 22 23  1  0  0  0  0
 22 53  1  0  0  0  0
 22 54  1  0  0  0  0
 23 24  1  0  0  0  0
 23 34  1  0  0  0  0
 24 25  1  0  0  0  0
 24 33  2  0  0  0  0
 25 26  2  0  0  0  0
 25 55  1  0  0  0  0
 26 27  1  0  0  0  0
 27 28  2  0  0  0  0
 27 56  1  0  0  0  0
 28 29  1  0  0  0  0
 28 33  1  0  0  0  0
 29 30  2  0  0  0  0
 29 57  1  0  0  0  0
 30 31  1  0  0  0  0
 30 58  1  0  0  0  0
 31 32  2  0  0  0  0
 31 59  1  0  0  0  0
 32 33  1  0  0  0  0
 32 60  1  0  0  0  0
 34 35  2  0  0  0  0
 36 61  1  0  0  0  0
 36 62  1  0  0  0  0
 37 63  1  0  0  0  0
 37 64  1  0  0  0  0
M  END
$$$$
