
 OpenBabel07202414173D

 31 32  0  0  0  0  0  0  0  0999 V2000
    1.0026   -0.1009    0.2083 Cl  0  0  0  0  0  0  0  0  0  0  0  0
    2.7405   -0.4555    0.2861 C   0  0  0  0  0  0  0  0  0  0  0  0
    3.3000   -0.8692   -1.0682 C   0  0  0  0  0  0  0  0  0  0  0  0
    2.5947   -1.0065   -2.0659 O   0  0  0  0  0  0  0  0  0  0  0  0
    4.6777   -1.0722   -1.1298 N   0  0  0  0  0  0  0  0  0  0  0  0
    5.6060   -1.0144    0.0043 C   0  0  0  0  0  0  0  0  0  0  0  0
    6.7614   -0.0444   -0.2998 C   0  0  0  0  0  0  0  0  0  0  0  0
    7.4977   -0.3511   -1.5477 N   0  0  0  0  0  0  0  0  0  0  0  0
    8.2672   -1.6091   -1.4783 C   0  0  0  0  0  0  0  0  0  0  0  0
    9.3000   -1.6276   -0.3837 C   0  0  0  0  0  0  0  0  0  0  0  0
   10.4137   -0.8246   -0.2328 C   0  0  0  0  0  0  0  0  0  0  0  0
   11.1827   -1.1735    0.9149 C   0  0  0  0  0  0  0  0  0  0  0  0
   10.6263   -2.2225    1.6113 C   0  0  0  0  0  0  0  0  0  0  0  0
    9.1910   -2.7872    0.8787 S   0  0  0  0  0  0  0  0  0  0  0  0
    6.5182   -0.4127   -2.6661 C   0  0  0  0  0  0  0  0  0  0  0  0
    5.3111   -1.3506   -2.4238 C   0  0  0  0  0  0  0  0  0  0  0  0
    2.8828   -1.2609    1.0106 H   0  0  0  0  0  0  0  0  0  0  0  0
    3.2366    0.4584    0.6228 H   0  0  0  0  0  0  0  0  0  0  0  0
    5.9770   -2.0312    0.1730 H   0  0  0  0  0  0  0  0  0  0  0  0
    5.1063   -0.7064    0.9246 H   0  0  0  0  0  0  0  0  0  0  0  0
    7.4392    0.0170    0.5581 H   0  0  0  0  0  0  0  0  0  0  0  0
    6.3422    0.9661   -0.4027 H   0  0  0  0  0  0  0  0  0  0  0  0
    8.8086   -1.7351   -2.4256 H   0  0  0  0  0  0  0  0  0  0  0  0
    7.6114   -2.4822   -1.3883 H   0  0  0  0  0  0  0  0  0  0  0  0
   10.6645   -0.0269   -0.9225 H   0  0  0  0  0  0  0  0  0  0  0  0
   12.0995   -0.6802    1.2140 H   0  0  0  0  0  0  0  0  0  0  0  0
   10.9975   -2.6898    2.5129 H   0  0  0  0  0  0  0  0  0  0  0  0
    7.0239   -0.6880   -3.5994 H   0  0  0  0  0  0  0  0  0  0  0  0
    6.1348    0.6044   -2.8258 H   0  0  0  0  0  0  0  0  0  0  0  0
    5.6275   -2.3994   -2.4147 H   0  0  0  0  0  0  0  0  0  0  0  0
    4.5983   -1.2373   -3.2469 H   0  0  0  0  0  0  0  0  0  0  0  0
  1  2  1  0  0  0  0
  2  3  1  0  0  0  0
  2 17  1  0  0  0  0
  2 18  1  0  0  0  0
  3  4  2  0  0  0  0
  3  5  1  0  0  0  0
  5  6  1  0  0  0  0
  5 16  1  0  0  0  0
  6  7  1  0  0  0  0
  6 19  1  0  0  0  0
  6 20  1  0  0  0  0
  7  8  1  0  0  0  0
  7 21  1  0  0  0  0
  7 22  1  0  0  0  0
  8  9  1  0  0  0  0
  8 15  1  0  0  0  0
  9 10  1  0  0  0  0
  9 23  1  0  0  0  0
  9 24  1  0  0  0  0
 10 11  2  0  0  0  0
 10 14  1  0  0  0  0
 11 12  1  0  0  0  0
 11 25  1  0  0  0  0
 12 13  2  0  0  0  0
 12 26  1  0  0  0  0
 13 14  1  0  0  0  0
 13 27  1  0  0  0  0
 15 16  1  0  0  0  0
 15 28  1  0  0  0  0
 15 29  1  0  0  0  0
 16 30  1  0  0  0  0
 16 31  1  0  0  0  0
M  END
$$$$
