
 OpenBabel07202414193D

 44 47  0  0  0  0  0  0  0  0999 V2000
    1.2601    0.6898   -0.1852 O   0  0  0  0  0  0  0  0  0  0  0  0
    2.2941    0.0417   -0.0040 C   0  0  0  0  0  0  0  0  0  0  0  0
    2.6931   -0.3515    1.4116 C   0  0  0  0  0  0  0  0  0  0  0  0
    3.7804    0.5249    1.9980 C   0  0  0  0  0  0  0  0  0  0  0  0
    3.7655    1.8969    1.7212 C   0  0  0  0  0  0  0  0  0  0  0  0
    4.6556    2.7892    2.1998 N   0  0  0  0  0  0  0  0  0  0  0  0
    5.6067    2.3035    3.0212 C   0  0  0  0  0  0  0  0  0  0  0  0
    5.7252    0.9628    3.3938 C   0  0  0  0  0  0  0  0  0  0  0  0
    6.7406    0.5452    4.2686 C   0  0  0  0  0  0  0  0  0  0  0  0
    6.8552   -0.7942    4.6350 C   0  0  0  0  0  0  0  0  0  0  0  0
    5.9517   -1.7230    4.1325 C   0  0  0  0  0  0  0  0  0  0  0  0
    4.9339   -1.3136    3.2661 C   0  0  0  0  0  0  0  0  0  0  0  0
    4.7902    0.0388    2.8715 C   0  0  0  0  0  0  0  0  0  0  0  0
    3.1498   -0.2977   -1.0451 N   0  0  0  0  0  0  0  0  0  0  0  0
    4.2764   -1.2227   -0.9288 C   0  0  0  0  0  0  0  0  0  0  0  0
    5.4854   -0.7070   -1.6964 C   0  0  0  0  0  0  0  0  0  0  0  0
    5.1542   -0.4413   -3.1750 C   0  0  0  0  0  0  0  0  0  0  0  0
    4.9875   -1.7269   -3.9730 C   0  0  0  0  0  0  0  0  0  0  0  0
    3.9068   -2.1999   -4.6979 C   0  0  0  0  0  0  0  0  0  0  0  0
    4.1435   -3.4774   -5.2802 C   0  0  0  0  0  0  0  0  0  0  0  0
    5.4135   -3.9339   -5.0207 C   0  0  0  0  0  0  0  0  0  0  0  0
    6.3181   -2.8172   -4.1024 S   0  0  0  0  0  0  0  0  0  0  0  0
    3.9433    0.5059   -3.2522 C   0  0  0  0  0  0  0  0  0  0  0  0
    2.7542    0.0441   -2.4074 C   0  0  0  0  0  0  0  0  0  0  0  0
    2.9467   -1.4141    1.4019 H   0  0  0  0  0  0  0  0  0  0  0  0
    1.8045   -0.2713    2.0502 H   0  0  0  0  0  0  0  0  0  0  0  0
    3.0063    2.3424    1.0801 H   0  0  0  0  0  0  0  0  0  0  0  0
    6.2998    3.0532    3.3930 H   0  0  0  0  0  0  0  0  0  0  0  0
    7.4502    1.2635    4.6744 H   0  0  0  0  0  0  0  0  0  0  0  0
    7.6439   -1.1085    5.3128 H   0  0  0  0  0  0  0  0  0  0  0  0
    6.0378   -2.7699    4.4147 H   0  0  0  0  0  0  0  0  0  0  0  0
    4.2535   -2.0801    2.9071 H   0  0  0  0  0  0  0  0  0  0  0  0
    3.9438   -2.1956   -1.3089 H   0  0  0  0  0  0  0  0  0  0  0  0
    4.5723   -1.3754    0.1084 H   0  0  0  0  0  0  0  0  0  0  0  0
    6.3169   -1.4105   -1.5818 H   0  0  0  0  0  0  0  0  0  0  0  0
    5.8154    0.2343   -1.2362 H   0  0  0  0  0  0  0  0  0  0  0  0
    6.0073    0.0918   -3.6188 H   0  0  0  0  0  0  0  0  0  0  0  0
    2.9692   -1.6698   -4.8075 H   0  0  0  0  0  0  0  0  0  0  0  0
    3.4181   -4.0292   -5.8653 H   0  0  0  0  0  0  0  0  0  0  0  0
    5.8604   -4.8650   -5.3393 H   0  0  0  0  0  0  0  0  0  0  0  0
    3.6278    0.6640   -4.2901 H   0  0  0  0  0  0  0  0  0  0  0  0
    4.2591    1.4882   -2.8740 H   0  0  0  0  0  0  0  0  0  0  0  0
    2.2770   -0.8453   -2.8306 H   0  0  0  0  0  0  0  0  0  0  0  0
    1.9945    0.8332   -2.4074 H   0  0  0  0  0  0  0  0  0  0  0  0
  1  2  2  0  0  0  0
  2  3  1  0  0  0  0
  2 14  1  0  0  0  0
  3  4  1  0  0  0  0
  3 25  1  0  0  0  0
  3 26  1  0  0  0  0
  4  5  1  0  0  0  0
  4 13  2  0  0  0  0
  5  6  2  0  0  0  0
  5 27  1  0  0  0  0
  6  7  1  0  0  0  0
  7  8  2  0  0  0  0
  7 28  1  0  0  0  0
  8  9  1  0  0  0  0
  8 13  1  0  0  0  0
  9 10  2  0  0  0  0
  9 29  1  0  0  0  0
 10 11  1  0  0  0  0
 10 30  1  0  0  0  0
 11 12  2  0  0  0  0
 11 31  1  0  0  0  0
 12 13  1  0  0  0  0
 12 32  1  0  0  0  0
 14 15  1  0  0  0  0
 14 24  1  0  0  0  0
 15 16  1  0  0  0  0
 15 33  1  0  0  0  0
 15 34  1  0  0  0  0
 16 17  1  0  0  0  0
 16 35  1  0  0  0  0
 16 36  1  0  0  0  0
 17 18  1  0  0  0  0
 17 23  1  0  0  0  0
 17 37  1  0  0  0  0
 18 19  2  0  0  0  0
 18 22  1  0  0  0  0
 19 20  1  0  0  0  0
 19 38  1  0  0  0  0
 20 21  2  0  0  0  0
 20 39  1  0  0  0  0
 21 22  1  0  0  0  0
 21 40  1  0  0  0  0
 23 24  1  0  0  0  0
 23 41  1  0  0  0  0
 23 42  1  0  0  0  0
 24 43  1  0  0  0  0
 24 44  1  0  0  0  0
M  END
$$$$
