
 OpenBabel07202414183D

 32 34  0  0  0  0  0  0  0  0999 V2000
   -1.3367   -5.0366   -2.0774 Cl  0  0  0  0  0  0  0  0  0  0  0  0
    0.1046   -4.1171   -2.2636 C   0  0  0  0  0  0  0  0  0  0  0  0
    0.5763   -3.8228   -3.5393 C   0  0  0  0  0  0  0  0  0  0  0  0
    1.7344   -3.0564   -3.6766 C   0  0  0  0  0  0  0  0  0  0  0  0
    2.4189   -2.5930   -2.5503 C   0  0  0  0  0  0  0  0  0  0  0  0
    1.9707   -2.9114   -1.2597 C   0  0  0  0  0  0  0  0  0  0  0  0
    2.6279   -2.3899   -0.0047 C   0  0  0  0  0  0  0  0  0  0  0  0
    4.1074   -2.1209   -0.0988 C   0  0  0  0  0  0  0  0  0  0  0  0
    4.5912   -1.0072   -0.2568 O   0  0  0  0  0  0  0  0  0  0  0  0
    4.9648   -3.2737   -0.0563 N   0  0  0  0  0  0  0  0  0  0  0  0
    6.3449   -3.1320   -0.1635 C   0  0  0  0  0  0  0  0  0  0  0  0
    7.1418   -3.9077   -0.9774 C   0  0  0  0  0  0  0  0  0  0  0  0
    8.4410   -3.4748   -0.9610 N   0  0  0  0  0  0  0  0  0  0  0  0
    8.4659   -2.4714   -0.1069 C   0  0  0  0  0  0  0  0  0  0  0  0
    9.5410   -1.6494    0.3357 C   0  0  0  0  0  0  0  0  0  0  0  0
    9.3384   -0.7539    1.3213 C   0  0  0  0  0  0  0  0  0  0  0  0
    8.0369   -0.6035    1.9521 C   0  0  0  0  0  0  0  0  0  0  0  0
    7.0065   -1.3420    1.5073 C   0  0  0  0  0  0  0  0  0  0  0  0
    7.2101   -2.2467    0.4606 N   0  0  0  0  0  0  0  0  0  0  0  0
    0.7881   -3.6673   -1.1362 C   0  0  0  0  0  0  0  0  0  0  0  0
    0.0426   -4.1665   -4.4195 H   0  0  0  0  0  0  0  0  0  0  0  0
    2.0888   -2.7979   -4.6737 H   0  0  0  0  0  0  0  0  0  0  0  0
    3.2939   -1.9633   -2.7100 H   0  0  0  0  0  0  0  0  0  0  0  0
    2.4871   -3.1035    0.8163 H   0  0  0  0  0  0  0  0  0  0  0  0
    2.1345   -1.4572    0.2898 H   0  0  0  0  0  0  0  0  0  0  0  0
    4.5640   -4.1970   -0.1800 H   0  0  0  0  0  0  0  0  0  0  0  0
    6.8412   -4.7168   -1.6299 H   0  0  0  0  0  0  0  0  0  0  0  0
   10.5120   -1.7651   -0.1333 H   0  0  0  0  0  0  0  0  0  0  0  0
   10.1499   -0.1211    1.6705 H   0  0  0  0  0  0  0  0  0  0  0  0
    7.9306    0.1054    2.7679 H   0  0  0  0  0  0  0  0  0  0  0  0
    6.0178   -1.2751    1.9409 H   0  0  0  0  0  0  0  0  0  0  0  0
    0.3824   -3.8949   -0.1498 H   0  0  0  0  0  0  0  0  0  0  0  0
  1  2  1  0  0  0  0
  2  3  1  0  0  0  0
  2 20  2  0  0  0  0
  3  4  2  0  0  0  0
  3 21  1  0  0  0  0
  4  5  1  0  0  0  0
  4 22  1  0  0  0  0
  5  6  2  0  0  0  0
  5 23  1  0  0  0  0
  6  7  1  0  0  0  0
  6 20  1  0  0  0  0
  7  8  1  0  0  0  0
  7 24  1  0  0  0  0
  7 25  1  0  0  0  0
  8  9  2  0  0  0  0
  8 10  1  0  0  0  0
 10 11  1  0  0  0  0
 10 26  1  0  0  0  0
 11 12  2  0  0  0  0
 11 19  1  0  0  0  0
 12 13  1  0  0  0  0
 12 27  1  0  0  0  0
 13 14  2  0  0  0  0
 14 15  1  0  0  0  0
 14 19  1  0  0  0  0
 15 16  2  0  0  0  0
 15 28  1  0  0  0  0
 16 17  1  0  0  0  0
 16 29  1  0  0  0  0
 17 18  2  0  0  0  0
 17 30  1  0  0  0  0
 18 19  1  0  0  0  0
 18 31  1  0  0  0  0
 20 32  1  0  0  0  0
M  END
$$$$
