
 OpenBabel07202414193D

 43 46  0  0  1  0  0  0  0  0999 V2000
    1.2324    0.4081    0.2513 O   0  0  0  0  0  0  0  0  0  0  0  0
    2.2390   -0.0415   -0.3051 C   0  0  0  0  0  0  0  0  0  0  0  0
    2.6492   -1.4911   -0.0636 C   0  0  0  0  0  0  0  0  0  0  0  0
    3.7088   -1.6523    1.0037 C   0  0  0  0  0  0  0  0  0  0  0  0
    3.6888   -0.8119    2.1216 C   0  0  0  0  0  0  0  0  0  0  0  0
    4.5794   -0.8532    3.1315 N   0  0  0  0  0  0  0  0  0  0  0  0
    5.5397   -1.7954    3.0495 C   0  0  0  0  0  0  0  0  0  0  0  0
    5.6636   -2.7089    2.0006 C   0  0  0  0  0  0  0  0  0  0  0  0
    6.6987   -3.6613    1.9873 C   0  0  0  0  0  0  0  0  0  0  0  0
    6.8180   -4.5676    0.9363 C   0  0  0  0  0  0  0  0  0  0  0  0
    5.8954   -4.5390   -0.0994 C   0  0  0  0  0  0  0  0  0  0  0  0
    4.8573   -3.6006   -0.0922 C   0  0  0  0  0  0  0  0  0  0  0  0
    4.7209   -2.6526    0.9506 C   0  0  0  0  0  0  0  0  0  0  0  0
    3.0505    0.7354   -1.1170 N   0  0  0  0  0  0  0  0  0  0  0  0
    4.2442    0.2616   -1.8136 C   0  0  0  0  0  0  0  0  0  0  0  0
    5.4200    1.1983   -1.5747 C   0  0  0  0  0  0  0  0  0  0  0  0
    5.0714    2.6358   -1.9458 C   0  0  0  0  0  0  0  0  0  0  0  0
    3.7804    3.1081   -1.2506 C   0  0  1  0  0  0  0  0  0  0  0  0
    3.3702    4.4581   -1.7723 C   0  0  0  0  0  0  0  0  0  0  0  0
    3.0969    4.7095   -3.0383 N   0  0  0  0  0  0  0  0  0  0  0  0
    2.7413    6.0334   -3.1853 C   0  0  0  0  0  0  0  0  0  0  0  0
    2.7454    6.7817   -2.0293 C   0  0  0  0  0  0  0  0  0  0  0  0
    3.2171    5.8006   -0.7072 S   0  0  0  0  0  0  0  0  0  0  0  0
    2.6386    2.0998   -1.4593 C   0  0  0  0  0  0  0  0  0  0  0  0
    2.9480   -1.9092   -1.0280 H   0  0  0  0  0  0  0  0  0  0  0  0
    1.7570   -2.0600    0.2278 H   0  0  0  0  0  0  0  0  0  0  0  0
    2.9307   -0.0396    2.2433 H   0  0  0  0  0  0  0  0  0  0  0  0
    6.2345   -1.7985    3.8823 H   0  0  0  0  0  0  0  0  0  0  0  0
    7.4220   -3.6999    2.7994 H   0  0  0  0  0  0  0  0  0  0  0  0
    7.6259   -5.2944    0.9313 H   0  0  0  0  0  0  0  0  0  0  0  0
    5.9799   -5.2480   -0.9216 H   0  0  0  0  0  0  0  0  0  0  0  0
    4.1535   -3.6290   -0.9228 H   0  0  0  0  0  0  0  0  0  0  0  0
    3.9947    0.2078   -2.8792 H   0  0  0  0  0  0  0  0  0  0  0  0
    4.5408   -0.7376   -1.5011 H   0  0  0  0  0  0  0  0  0  0  0  0
    6.2797    0.8594   -2.1632 H   0  0  0  0  0  0  0  0  0  0  0  0
    5.7127    1.1552   -0.5181 H   0  0  0  0  0  0  0  0  0  0  0  0
    4.9653    2.7018   -3.0365 H   0  0  0  0  0  0  0  0  0  0  0  0
    5.9063    3.2933   -1.6732 H   0  0  0  0  0  0  0  0  0  0  0  0
    3.9869    3.1641   -0.1728 H   0  0  0  0  0  0  0  0  0  0  0  0
    2.4827    6.4069   -4.1695 H   0  0  0  0  0  0  0  0  0  0  0  0
    2.5010    7.8262   -1.9017 H   0  0  0  0  0  0  0  0  0  0  0  0
    2.3215    2.0758   -2.5103 H   0  0  0  0  0  0  0  0  0  0  0  0
    1.7603    2.4051   -0.8772 H   0  0  0  0  0  0  0  0  0  0  0  0
  1  2  2  0  0  0  0
  2  3  1  0  0  0  0
  2 14  1  0  0  0  0
  3  4  1  0  0  0  0
  3 25  1  0  0  0  0
  3 26  1  0  0  0  0
  4  5  1  0  0  0  0
  4 13  2  0  0  0  0
  5  6  2  0  0  0  0
  5 27  1  0  0  0  0
  6  7  1  0  0  0  0
  7  8  2  0  0  0  0
  7 28  1  0  0  0  0
  8  9  1  0  0  0  0
  8 13  1  0  0  0  0
  9 10  2  0  0  0  0
  9 29  1  0  0  0  0
 10 11  1  0  0  0  0
 10 30  1  0  0  0  0
 11 12  2  0  0  0  0
 11 31  1  0  0  0  0
 12 13  1  0  0  0  0
 12 32  1  0  0  0  0
 14 15  1  0  0  0  0
 14 24  1  0  0  0  0
 15 16  1  0  0  0  0
 15 33  1  0  0  0  0
 15 34  1  0  0  0  0
 16 17  1  0  0  0  0
 16 35  1  0  0  0  0
 16 36  1  0  0  0  0
 17 18  1  0  0  0  0
 17 37  1  0  0  0  0
 17 38  1  0  0  0  0
 18 19  1  0  0  0  0
 18 24  1  0  0  0  0
 18 39  1  1  0  0  0
 19 20  2  0  0  0  0
 19 23  1  0  0  0  0
 20 21  1  0  0  0  0
 21 22  2  0  0  0  0
 21 40  1  0  0  0  0
 22 23  1  0  0  0  0
 22 41  1  0  0  0  0
 24 42  1  0  0  0  0
 24 43  1  0  0  0  0
M  END
$$$$
