
 OpenBabel07202414203D

 40 43  0  0  1  0  0  0  0  0999 V2000
    2.8443   -0.5829   -1.2033 C   0  0  0  0  0  0  0  0  0  0  0  0
    2.5318    0.7650   -1.3582 C   0  0  0  0  0  0  0  0  0  0  0  0
    1.2338    1.2011   -1.1179 C   0  0  0  0  0  0  0  0  0  0  0  0
    0.2482    0.2808   -0.7302 C   0  0  0  0  0  0  0  0  0  0  0  0
    0.5356   -1.0925   -0.5812 C   0  0  0  0  0  0  0  0  0  0  0  0
    1.8586   -1.5046   -0.8227 C   0  0  0  0  0  0  0  0  0  0  0  0
   -0.5726   -2.0377   -0.2475 C   0  0  0  0  0  0  0  0  0  0  0  0
   -1.7882   -1.5042   -0.0285 C   0  0  0  0  0  0  0  0  0  0  0  0
   -2.0510   -0.1627   -0.1246 N   0  0  0  0  0  0  0  0  0  0  0  0
   -1.1253    0.7864   -0.4834 C   0  0  0  0  0  0  0  0  0  0  0  0
   -1.4204    1.9685   -0.5898 O   0  0  0  0  0  0  0  0  0  0  0  0
   -0.3310   -3.3999   -0.1419 N   0  0  0  0  0  0  0  0  0  0  0  0
   -1.2766   -4.4146   -0.2973 C   0  0  0  0  0  0  0  0  0  0  0  0
   -2.4053   -4.2439   -0.7529 O   0  0  0  0  0  0  0  0  0  0  0  0
   -0.8146   -5.7702    0.2295 C   0  0  3  0  0  0  0  0  0  0  0  0
   -2.0215   -6.6347    0.5996 C   0  0  0  0  0  0  0  0  0  0  0  0
   -1.4907   -7.8329    1.3638 C   0  0  0  0  0  0  0  0  0  0  0  0
   -0.5988   -8.6390    0.5947 O   0  0  0  0  0  0  0  0  0  0  0  0
    0.2152   -7.9902   -0.2941 C   0  0  0  0  0  0  0  0  0  0  0  0
    0.1120   -6.6216   -0.6151 C   0  0  0  0  0  0  0  0  0  0  0  0
    0.9493   -6.1130   -1.6205 C   0  0  0  0  0  0  0  0  0  0  0  0
    1.9141   -6.9322   -2.2135 C   0  0  0  0  0  0  0  0  0  0  0  0
    2.0491   -8.2693   -1.8425 C   0  0  0  0  0  0  0  0  0  0  0  0
    1.1788   -8.8026   -0.8989 C   0  0  0  0  0  0  0  0  0  0  0  0
    2.9868   -6.2728   -3.3909 Cl  0  0  0  0  0  0  0  0  0  0  0  0
    3.8607   -0.9227   -1.3955 H   0  0  0  0  0  0  0  0  0  0  0  0
    3.2950    1.4755   -1.6693 H   0  0  0  0  0  0  0  0  0  0  0  0
    0.9843    2.2535   -1.2413 H   0  0  0  0  0  0  0  0  0  0  0  0
    2.1609   -2.5441   -0.7403 H   0  0  0  0  0  0  0  0  0  0  0  0
   -2.6468   -2.1031    0.2616 H   0  0  0  0  0  0  0  0  0  0  0  0
   -2.9880    0.1793    0.0445 H   0  0  0  0  0  0  0  0  0  0  0  0
    0.6290   -3.6947   -0.0251 H   0  0  0  0  0  0  0  0  0  0  0  0
   -0.2620   -5.5481    1.1558 H   0  0  0  0  0  0  0  0  0  0  0  0
   -2.5517   -6.9672   -0.3038 H   0  0  0  0  0  0  0  0  0  0  0  0
   -2.7363   -6.0786    1.2165 H   0  0  0  0  0  0  0  0  0  0  0  0
   -2.3224   -8.4700    1.6823 H   0  0  0  0  0  0  0  0  0  0  0  0
   -0.9637   -7.5153    2.2721 H   0  0  0  0  0  0  0  0  0  0  0  0
    0.8700   -5.0829   -1.9530 H   0  0  0  0  0  0  0  0  0  0  0  0
    2.8191   -8.8965   -2.2800 H   0  0  0  0  0  0  0  0  0  0  0  0
    1.2548   -9.8496   -0.6169 H   0  0  0  0  0  0  0  0  0  0  0  0
  1  2  1  0  0  0  0
  1  6  2  0  0  0  0
  1 26  1  0  0  0  0
  2  3  2  0  0  0  0
  2 27  1  0  0  0  0
  3  4  1  0  0  0  0
  3 28  1  0  0  0  0
  4  5  2  0  0  0  0
  4 10  1  0  0  0  0
  5  6  1  0  0  0  0
  5  7  1  0  0  0  0
  6 29  1  0  0  0  0
  7  8  2  0  0  0  0
  7 12  1  0  0  0  0
  8  9  1  0  0  0  0
  8 30  1  0  0  0  0
  9 10  1  0  0  0  0
  9 31  1  0  0  0  0
 10 11  2  0  0  0  0
 12 13  1  0  0  0  0
 12 32  1  0  0  0  0
 13 14  2  0  0  0  0
 13 15  1  0  0  0  0
 15 16  1  0  0  0  0
 15 20  1  0  0  0  0
 15 33  1  0  0  0  0
 16 17  1  0  0  0  0
 16 34  1  0  0  0  0
 16 35  1  0  0  0  0
 17 18  1  0  0  0  0
 17 36  1  0  0  0  0
 17 37  1  0  0  0  0
 18 19  1  0  0  0  0
 19 20  1  0  0  0  0
 19 24  2  0  0  0  0
 20 21  2  0  0  0  0
 21 22  1  0  0  0  0
 21 38  1  0  0  0  0
 22 23  2  0  0  0  0
 22 25  1  0  0  0  0
 23 24  1  0  0  0  0
 23 39  1  0  0  0  0
 24 40  1  0  0  0  0
M  END
$$$$
