
 OpenBabel07202414153D

 43 46  0  0  1  0  0  0  0  0999 V2000
    2.3010    0.2869   -2.6350 C   0  0  0  0  0  0  0  0  0  0  0  0
    3.3416   -0.0732   -1.7337 O   0  0  0  0  0  0  0  0  0  0  0  0
    2.9831   -0.9286   -0.6281 C   0  0  1  0  0  0  0  0  0  0  0  0
    2.1037   -2.1065   -1.0862 C   0  0  0  0  0  0  0  0  0  0  0  0
    2.0151   -3.1618    0.0024 C   0  0  0  0  0  0  0  0  0  0  0  0
    3.2808   -3.7255    0.3176 O   0  0  0  0  0  0  0  0  0  0  0  0
    4.3203   -2.8429    0.3962 C   0  0  0  0  0  0  0  0  0  0  0  0
    4.2893   -1.5304   -0.0968 C   0  0  0  0  0  0  0  0  0  0  0  0
    5.4767   -0.7727   -0.0388 C   0  0  0  0  0  0  0  0  0  0  0  0
    6.6279   -1.2951    0.5530 C   0  0  0  0  0  0  0  0  0  0  0  0
    6.6289   -2.5824    1.0778 C   0  0  0  0  0  0  0  0  0  0  0  0
    5.4794   -3.3621    0.9789 C   0  0  0  0  0  0  0  0  0  0  0  0
    8.0502   -0.3326    0.6518 Cl  0  0  0  0  0  0  0  0  0  0  0  0
    2.2945   -0.1218    0.5585 C   0  0  0  0  0  0  0  0  0  0  0  0
    1.2419   -0.4784    1.0825 O   0  0  0  0  0  0  0  0  0  0  0  0
    2.9691    1.0327    0.9205 N   0  0  0  0  0  0  0  0  0  0  0  0
    2.7348    1.8314    2.0771 C   0  0  0  0  0  0  0  0  0  0  0  0
    2.7596    3.2138    1.8763 C   0  0  0  0  0  0  0  0  0  0  0  0
    2.7324    4.1527    2.8491 N   0  0  0  0  0  0  0  0  0  0  0  0
    2.6717    3.6862    4.1114 C   0  0  0  0  0  0  0  0  0  0  0  0
    2.5726    2.3413    4.4600 C   0  0  0  0  0  0  0  0  0  0  0  0
    2.6188    1.3635    3.4239 C   0  0  0  0  0  0  0  0  0  0  0  0
    2.5806    0.0129    3.8543 C   0  0  0  0  0  0  0  0  0  0  0  0
    2.4518   -0.3409    5.2054 C   0  0  0  0  0  0  0  0  0  0  0  0
    2.3815    0.6440    6.1867 C   0  0  0  0  0  0  0  0  0  0  0  0
    2.4661    1.9792    5.8166 C   0  0  0  0  0  0  0  0  0  0  0  0
    2.7489    0.8487   -3.4612 H   0  0  0  0  0  0  0  0  0  0  0  0
    1.5669    0.9253   -2.1382 H   0  0  0  0  0  0  0  0  0  0  0  0
    1.8137   -0.5843   -3.0819 H   0  0  0  0  0  0  0  0  0  0  0  0
    2.5388   -2.5593   -1.9900 H   0  0  0  0  0  0  0  0  0  0  0  0
    1.0954   -1.7726   -1.3515 H   0  0  0  0  0  0  0  0  0  0  0  0
    1.3721   -3.9778   -0.3442 H   0  0  0  0  0  0  0  0  0  0  0  0
    1.5634   -2.7907    0.9262 H   0  0  0  0  0  0  0  0  0  0  0  0
    5.5066    0.2327   -0.4522 H   0  0  0  0  0  0  0  0  0  0  0  0
    7.5158   -2.9876    1.5562 H   0  0  0  0  0  0  0  0  0  0  0  0
    5.4774   -4.3780    1.3666 H   0  0  0  0  0  0  0  0  0  0  0  0
    3.4319    1.4884    0.1393 H   0  0  0  0  0  0  0  0  0  0  0  0
    2.7585    3.6312    0.8753 H   0  0  0  0  0  0  0  0  0  0  0  0
    2.7046    4.4634    4.8784 H   0  0  0  0  0  0  0  0  0  0  0  0
    2.6517   -0.7991    3.1360 H   0  0  0  0  0  0  0  0  0  0  0  0
    2.3942   -1.3852    5.4963 H   0  0  0  0  0  0  0  0  0  0  0  0
    2.2621    0.3740    7.2340 H   0  0  0  0  0  0  0  0  0  0  0  0
    2.4296    2.7468    6.5967 H   0  0  0  0  0  0  0  0  0  0  0  0
  1  2  1  0  0  0  0
  1 27  1  0  0  0  0
  1 28  1  0  0  0  0
  1 29  1  0  0  0  0
  3  4  1  0  0  0  0
  3  8  1  0  0  0  0
  3 14  1  1  0  0  0
  3  2  1  0  0  0  0
  4  5  1  0  0  0  0
  4 30  1  0  0  0  0
  4 31  1  0  0  0  0
  5  6  1  0  0  0  0
  5 32  1  0  0  0  0
  5 33  1  0  0  0  0
  6  7  1  0  0  0  0
  7  8  1  0  0  0  0
  7 12  2  0  0  0  0
  8  9  2  0  0  0  0
  9 10  1  0  0  0  0
  9 34  1  0  0  0  0
 10 11  2  0  0  0  0
 10 13  1  0  0  0  0
 11 12  1  0  0  0  0
 11 35  1  0  0  0  0
 12 36  1  0  0  0  0
 14 15  2  0  0  0  0
 14 16  1  0  0  0  0
 16 17  1  0  0  0  0
 16 37  1  0  0  0  0
 17 18  1  0  0  0  0
 17 22  2  0  0  0  0
 18 19  2  0  0  0  0
 18 38  1  0  0  0  0
 19 20  1  0  0  0  0
 20 21  2  0  0  0  0
 20 39  1  0  0  0  0
 21 22  1  0  0  0  0
 21 26  1  0  0  0  0
 22 23  1  0  0  0  0
 23 24  2  0  0  0  0
 23 40  1  0  0  0  0
 24 25  1  0  0  0  0
 24 41  1  0  0  0  0
 25 26  2  0  0  0  0
 25 42  1  0  0  0  0
 26 43  1  0  0  0  0
M  END
$$$$
