
 OpenBabel07202414193D

 48 52  0  0  0  0  0  0  0  0999 V2000
    2.2292    0.7256   -2.3055 N   0  0  0  0  0  0  0  0  0  0  0  0
    3.0546    0.4182   -1.2599 C   0  0  0  0  0  0  0  0  0  0  0  0
    3.6640   -0.7418   -1.3746 N   0  0  0  0  0  0  0  0  0  0  0  0
    4.4484   -1.0337   -0.3191 C   0  0  0  0  0  0  0  0  0  0  0  0
    4.6818   -0.2942    0.8110 C   0  0  0  0  0  0  0  0  0  0  0  0
    5.5549   -0.9315    1.6625 N   0  0  0  0  0  0  0  0  0  0  0  0
    5.8576   -2.0507    1.0413 C   0  0  0  0  0  0  0  0  0  0  0  0
    5.1978   -2.1621   -0.1582 N   0  0  0  0  0  0  0  0  0  0  0  0
    3.9968    0.9673    0.9818 C   0  0  0  0  0  0  0  0  0  0  0  0
    4.1758    1.6941    1.9387 O   0  0  0  0  0  0  0  0  0  0  0  0
    3.1708    1.2838   -0.1369 N   0  0  0  0  0  0  0  0  0  0  0  0
    2.4665    2.5303   -0.0859 C   0  0  0  0  0  0  0  0  0  0  0  0
    1.6375    2.8252    1.0095 C   0  0  0  0  0  0  0  0  0  0  0  0
    0.8862    4.0306    1.0618 C   0  0  0  0  0  0  0  0  0  0  0  0
   -0.1081    4.2712    2.1832 C   0  0  0  0  0  0  0  0  0  0  0  0
   -0.0276    5.6541    2.8320 C   0  0  0  0  0  0  0  0  0  0  0  0
   -0.2463    6.6835    2.1824 O   0  0  0  0  0  0  0  0  0  0  0  0
    0.3644    5.6140    4.1553 N   0  0  0  0  0  0  0  0  0  0  0  0
    0.5863    6.7158    5.0203 C   0  0  0  0  0  0  0  0  0  0  0  0
    1.7189    6.6033    5.8374 C   0  0  0  0  0  0  0  0  0  0  0  0
    2.0557    7.4424    6.8356 N   0  0  0  0  0  0  0  0  0  0  0  0
    1.1573    8.4028    7.1031 C   0  0  0  0  0  0  0  0  0  0  0  0
   -0.0054    8.6177    6.3646 C   0  0  0  0  0  0  0  0  0  0  0  0
   -0.9108    9.6020    6.7657 C   0  0  0  0  0  0  0  0  0  0  0  0
   -1.6872   10.2523    5.8235 C   0  0  0  0  0  0  0  0  0  0  0  0
   -1.9058    9.6008    4.6279 C   0  0  0  0  0  0  0  0  0  0  0  0
   -1.3190    8.3494    4.3941 C   0  0  0  0  0  0  0  0  0  0  0  0
   -0.2499    7.8606    5.2035 C   0  0  0  0  0  0  0  0  0  0  0  0
    1.0042    4.9238   -0.0075 C   0  0  0  0  0  0  0  0  0  0  0  0
    1.8579    4.6510   -1.0753 C   0  0  0  0  0  0  0  0  0  0  0  0
    2.0072    5.7916   -2.3573 Cl  0  0  0  0  0  0  0  0  0  0  0  0
    2.5795    3.4602   -1.1288 C   0  0  0  0  0  0  0  0  0  0  0  0
    2.0261   -0.0812   -2.8822 H   0  0  0  0  0  0  0  0  0  0  0  0
    1.4095    1.2869   -2.0956 H   0  0  0  0  0  0  0  0  0  0  0  0
    6.5292   -2.8227    1.4134 H   0  0  0  0  0  0  0  0  0  0  0  0
    5.2461   -2.9358   -0.8033 H   0  0  0  0  0  0  0  0  0  0  0  0
    1.5424    2.1042    1.8230 H   0  0  0  0  0  0  0  0  0  0  0  0
   -0.0025    3.4916    2.9510 H   0  0  0  0  0  0  0  0  0  0  0  0
   -1.1229    4.1596    1.7812 H   0  0  0  0  0  0  0  0  0  0  0  0
    0.8375    4.7587    4.4346 H   0  0  0  0  0  0  0  0  0  0  0  0
    2.4523    5.8183    5.6662 H   0  0  0  0  0  0  0  0  0  0  0  0
    1.4431    9.0806    7.9059 H   0  0  0  0  0  0  0  0  0  0  0  0
   -1.1346    9.7333    7.8232 H   0  0  0  0  0  0  0  0  0  0  0  0
   -2.1589   11.2013    6.0639 H   0  0  0  0  0  0  0  0  0  0  0  0
   -2.5819   10.0403    3.8936 H   0  0  0  0  0  0  0  0  0  0  0  0
   -1.6396    7.8089    3.5143 H   0  0  0  0  0  0  0  0  0  0  0  0
    0.4352    5.8515   -0.0107 H   0  0  0  0  0  0  0  0  0  0  0  0
    3.2429    3.2711   -1.9692 H   0  0  0  0  0  0  0  0  0  0  0  0
  1  2  1  0  0  0  0
  1 33  1  0  0  0  0
  1 34  1  0  0  0  0
  2  3  2  0  0  0  0
  2 11  1  0  0  0  0
  3  4  1  0  0  0  0
  4  5  2  0  0  0  0
  4  8  1  0  0  0  0
  5  6  1  0  0  0  0
  5  9  1  0  0  0  0
  6  7  2  0  0  0  0
  7  8  1  0  0  0  0
  7 35  1  0  0  0  0
  8 36  1  0  0  0  0
  9 10  2  0  0  0  0
  9 11  1  0  0  0  0
 11 12  1  0  0  0  0
 12 13  2  0  0  0  0
 12 32  1  0  0  0  0
 13 14  1  0  0  0  0
 13 37  1  0  0  0  0
 14 15  1  0  0  0  0
 14 29  2  0  0  0  0
 15 16  1  0  0  0  0
 15 38  1  0  0  0  0
 15 39  1  0  0  0  0
 16 17  2  0  0  0  0
 16 18  1  0  0  0  0
 18 19  1  0  0  0  0
 18 40  1  0  0  0  0
 19 20  2  0  0  0  0
 19 28  1  0  0  0  0
 20 21  1  0  0  0  0
 20 41  1  0  0  0  0
 21 22  2  0  0  0  0
 22 23  1  0  0  0  0
 22 42  1  0  0  0  0
 23 24  2  0  0  0  0
 23 28  1  0  0  0  0
 24 25  1  0  0  0  0
 24 43  1  0  0  0  0
 25 26  2  0  0  0  0
 25 44  1  0  0  0  0
 26 27  1  0  0  0  0
 26 45  1  0  0  0  0
 27 28  2  0  0  0  0
 27 46  1  0  0  0  0
 29 30  1  0  0  0  0
 29 47  1  0  0  0  0
 30 31  1  0  0  0  0
 30 32  2  0  0  0  0
 32 48  1  0  0  0  0
M  END
$$$$
