
 OpenBabel07202414193D

 40 43  0  0  1  0  0  0  0  0999 V2000
    1.0209   -0.3879   -0.1928 O   0  0  0  0  0  0  0  0  0  0  0  0
    2.2234   -0.1493   -0.0689 C   0  0  0  0  0  0  0  0  0  0  0  0
    2.9516    0.6900   -1.1062 C   0  0  0  0  0  0  0  0  0  0  0  0
    3.0823    2.1654   -0.7985 C   0  0  0  0  0  0  0  0  0  0  0  0
    2.0947    2.8189   -0.0575 C   0  0  0  0  0  0  0  0  0  0  0  0
    2.1084    4.1336    0.2470 N   0  0  0  0  0  0  0  0  0  0  0  0
    3.1411    4.8541   -0.2363 C   0  0  0  0  0  0  0  0  0  0  0  0
    4.1758    4.3342   -1.0105 C   0  0  0  0  0  0  0  0  0  0  0  0
    5.2110    5.1572   -1.4937 C   0  0  0  0  0  0  0  0  0  0  0  0
    6.2326    4.6267   -2.2790 C   0  0  0  0  0  0  0  0  0  0  0  0
    6.2267    3.2742   -2.5926 C   0  0  0  0  0  0  0  0  0  0  0  0
    5.2018    2.4517   -2.1170 C   0  0  0  0  0  0  0  0  0  0  0  0
    4.1514    2.9523   -1.3133 C   0  0  0  0  0  0  0  0  0  0  0  0
    2.9602   -0.6303    0.9902 N   0  0  0  0  0  0  0  0  0  0  0  0
    2.4026   -1.5668    1.9460 C   0  0  0  0  0  0  0  0  0  0  0  0
    3.0858   -1.1918    3.2497 C   0  0  0  0  0  0  0  0  0  0  0  0
    4.4968   -0.7704    2.8174 C   0  0  1  0  0  0  0  0  0  0  0  0
    5.4513   -1.9322    2.8294 C   0  0  0  0  0  0  0  0  0  0  0  0
    5.3261   -3.0169    2.0932 N   0  0  0  0  0  0  0  0  0  0  0  0
    6.3507   -3.8977    2.3756 C   0  0  0  0  0  0  0  0  0  0  0  0
    7.2564   -3.4722    3.3214 C   0  0  0  0  0  0  0  0  0  0  0  0
    6.8150   -1.9164    3.8835 S   0  0  0  0  0  0  0  0  0  0  0  0
    4.2921   -0.1984    1.4057 C   0  0  0  0  0  0  0  0  0  0  0  0
    2.4089    0.5855   -2.0542 H   0  0  0  0  0  0  0  0  0  0  0  0
    3.9280    0.2218   -1.2576 H   0  0  0  0  0  0  0  0  0  0  0  0
    1.2222    2.2921    0.3239 H   0  0  0  0  0  0  0  0  0  0  0  0
    3.1068    5.9107    0.0194 H   0  0  0  0  0  0  0  0  0  0  0  0
    5.2224    6.2203   -1.2651 H   0  0  0  0  0  0  0  0  0  0  0  0
    7.0261    5.2711   -2.6505 H   0  0  0  0  0  0  0  0  0  0  0  0
    7.0157    2.8562   -3.2123 H   0  0  0  0  0  0  0  0  0  0  0  0
    5.2354    1.4057   -2.4103 H   0  0  0  0  0  0  0  0  0  0  0  0
    2.6826   -2.5765    1.6239 H   0  0  0  0  0  0  0  0  0  0  0  0
    1.3124   -1.5106    2.0015 H   0  0  0  0  0  0  0  0  0  0  0  0
    3.0605   -2.0017    3.9849 H   0  0  0  0  0  0  0  0  0  0  0  0
    2.5690   -0.3248    3.6809 H   0  0  0  0  0  0  0  0  0  0  0  0
    4.8694    0.0176    3.4834 H   0  0  0  0  0  0  0  0  0  0  0  0
    6.3890   -4.8486    1.8581 H   0  0  0  0  0  0  0  0  0  0  0  0
    8.1280   -3.9870    3.6990 H   0  0  0  0  0  0  0  0  0  0  0  0
    5.0359   -0.5364    0.6765 H   0  0  0  0  0  0  0  0  0  0  0  0
    4.3004    0.8955    1.4324 H   0  0  0  0  0  0  0  0  0  0  0  0
  1  2  2  0  0  0  0
  2  3  1  0  0  0  0
  2 14  1  0  0  0  0
  3  4  1  0  0  0  0
  3 24  1  0  0  0  0
  3 25  1  0  0  0  0
  4  5  1  0  0  0  0
  4 13  2  0  0  0  0
  5  6  2  0  0  0  0
  5 26  1  0  0  0  0
  6  7  1  0  0  0  0
  7  8  2  0  0  0  0
  7 27  1  0  0  0  0
  8  9  1  0  0  0  0
  8 13  1  0  0  0  0
  9 10  2  0  0  0  0
  9 28  1  0  0  0  0
 10 11  1  0  0  0  0
 10 29  1  0  0  0  0
 11 12  2  0  0  0  0
 11 30  1  0  0  0  0
 12 13  1  0  0  0  0
 12 31  1  0  0  0  0
 14 15  1  0  0  0  0
 14 23  1  0  0  0  0
 15 16  1  0  0  0  0
 15 32  1  0  0  0  0
 15 33  1  0  0  0  0
 16 17  1  0  0  0  0
 16 34  1  0  0  0  0
 16 35  1  0  0  0  0
 17 18  1  0  0  0  0
 17 23  1  0  0  0  0
 17 36  1  1  0  0  0
 18 19  2  0  0  0  0
 18 22  1  0  0  0  0
 19 20  1  0  0  0  0
 20 21  2  0  0  0  0
 20 37  1  0  0  0  0
 21 22  1  0  0  0  0
 21 38  1  0  0  0  0
 23 39  1  0  0  0  0
 23 40  1  0  0  0  0
M  END
$$$$
