
 OpenBabel07202414173D

 43 45  0  0  0  0  0  0  0  0999 V2000
    0.9045   -0.2630    0.3257 Cl  0  0  0  0  0  0  0  0  0  0  0  0
    2.6357   -0.0017    0.6052 C   0  0  0  0  0  0  0  0  0  0  0  0
    3.3041   -1.2103    1.2524 C   0  0  0  0  0  0  0  0  0  0  0  0
    2.6780   -2.2107    1.5951 O   0  0  0  0  0  0  0  0  0  0  0  0
    4.6839   -1.1290    1.4238 N   0  0  0  0  0  0  0  0  0  0  0  0
    5.5218    0.0340    1.1136 C   0  0  0  0  0  0  0  0  0  0  0  0
    6.6892   -0.3743    0.1973 C   0  0  0  0  0  0  0  0  0  0  0  0
    7.5257   -1.4683    0.7426 N   0  0  0  0  0  0  0  0  0  0  0  0
    8.2944   -1.1066    1.9495 C   0  0  0  0  0  0  0  0  0  0  0  0
    9.2504    0.0357    1.7655 C   0  0  0  0  0  0  0  0  0  0  0  0
    9.0229    1.3819    1.9573 C   0  0  0  0  0  0  0  0  0  0  0  0
   10.1047    2.2140    1.7779 N   0  0  0  0  0  0  0  0  0  0  0  0
   11.1645    1.4976    1.4562 C   0  0  0  0  0  0  0  0  0  0  0  0
   12.5239    2.0892    1.2050 C   0  0  0  0  0  0  0  0  0  0  0  0
   12.7504    2.4520   -0.2463 C   0  0  0  0  0  0  0  0  0  0  0  0
   11.9189    3.3856   -0.8854 C   0  0  0  0  0  0  0  0  0  0  0  0
   12.0862    3.6754   -2.2396 C   0  0  0  0  0  0  0  0  0  0  0  0
   13.1000    3.0534   -2.9643 C   0  0  0  0  0  0  0  0  0  0  0  0
   13.9537    2.1502   -2.3330 C   0  0  0  0  0  0  0  0  0  0  0  0
   13.7821    1.8509   -0.9802 C   0  0  0  0  0  0  0  0  0  0  0  0
   10.8991   -0.2025    1.3557 S   0  0  0  0  0  0  0  0  0  0  0  0
    6.6341   -2.6236    1.0328 C   0  0  0  0  0  0  0  0  0  0  0  0
    5.4182   -2.2944    1.9323 C   0  0  0  0  0  0  0  0  0  0  0  0
    2.7414    0.8734    1.2523 H   0  0  0  0  0  0  0  0  0  0  0  0
    3.0930    0.1867   -0.3712 H   0  0  0  0  0  0  0  0  0  0  0  0
    5.8890    0.4304    2.0677 H   0  0  0  0  0  0  0  0  0  0  0  0
    4.9509    0.8360    0.6425 H   0  0  0  0  0  0  0  0  0  0  0  0
    7.2950    0.4995   -0.0663 H   0  0  0  0  0  0  0  0  0  0  0  0
    6.2688   -0.7210   -0.7552 H   0  0  0  0  0  0  0  0  0  0  0  0
    8.8650   -1.9866    2.2743 H   0  0  0  0  0  0  0  0  0  0  0  0
    7.6340   -0.8579    2.7893 H   0  0  0  0  0  0  0  0  0  0  0  0
    8.0741    1.8200    2.2391 H   0  0  0  0  0  0  0  0  0  0  0  0
   13.3032    1.3999    1.5548 H   0  0  0  0  0  0  0  0  0  0  0  0
   12.6363    2.9967    1.8118 H   0  0  0  0  0  0  0  0  0  0  0  0
   11.1171    3.8738   -0.3331 H   0  0  0  0  0  0  0  0  0  0  0  0
   11.4156    4.3758   -2.7305 H   0  0  0  0  0  0  0  0  0  0  0  0
   13.2214    3.2682   -4.0224 H   0  0  0  0  0  0  0  0  0  0  0  0
   14.7459    1.6674   -2.8990 H   0  0  0  0  0  0  0  0  0  0  0  0
   14.4507    1.1340   -0.5096 H   0  0  0  0  0  0  0  0  0  0  0  0
    7.2096   -3.4488    1.4687 H   0  0  0  0  0  0  0  0  0  0  0  0
    6.2568   -3.0007    0.0721 H   0  0  0  0  0  0  0  0  0  0  0  0
    5.7399   -2.0565    2.9514 H   0  0  0  0  0  0  0  0  0  0  0  0
    4.7697   -3.1741    1.9970 H   0  0  0  0  0  0  0  0  0  0  0  0
  1  2  1  0  0  0  0
  2  3  1  0  0  0  0
  2 24  1  0  0  0  0
  2 25  1  0  0  0  0
  3  4  2  0  0  0  0
  3  5  1  0  0  0  0
  5  6  1  0  0  0  0
  5 23  1  0  0  0  0
  6  7  1  0  0  0  0
  6 26  1  0  0  0  0
  6 27  1  0  0  0  0
  7  8  1  0  0  0  0
  7 28  1  0  0  0  0
  7 29  1  0  0  0  0
  8  9  1  0  0  0  0
  8 22  1  0  0  0  0
  9 10  1  0  0  0  0
  9 30  1  0  0  0  0
  9 31  1  0  0  0  0
 10 11  2  0  0  0  0
 10 21  1  0  0  0  0
 11 12  1  0  0  0  0
 11 32  1  0  0  0  0
 12 13  2  0  0  0  0
 13 14  1  0  0  0  0
 13 21  1  0  0  0  0
 14 15  1  0  0  0  0
 14 33  1  0  0  0  0
 14 34  1  0  0  0  0
 15 16  1  0  0  0  0
 15 20  2  0  0  0  0
 16 17  2  0  0  0  0
 16 35  1  0  0  0  0
 17 18  1  0  0  0  0
 17 36  1  0  0  0  0
 18 19  2  0  0  0  0
 18 37  1  0  0  0  0
 19 20  1  0  0  0  0
 19 38  1  0  0  0  0
 20 39  1  0  0  0  0
 22 23  1  0  0  0  0
 22 40  1  0  0  0  0
 22 41  1  0  0  0  0
 23 42  1  0  0  0  0
 23 43  1  0  0  0  0
M  END
$$$$
