
 OpenBabel07202414153D

 43 46  0  0  1  0  0  0  0  0999 V2000
    1.2179    0.0304   -0.4511 C   0  0  0  0  0  0  0  0  0  0  0  0
    2.5451   -0.0832    0.0370 O   0  0  0  0  0  0  0  0  0  0  0  0
    3.1214    1.0722    0.6969 C   0  0  2  0  0  0  0  0  0  0  0  0
    4.5375    0.5747    1.1897 C   0  0  0  0  0  0  0  0  0  0  0  0
    5.1437    1.1264    2.1043 O   0  0  0  0  0  0  0  0  0  0  0  0
    5.0285   -0.4976    0.4440 N   0  0  0  0  0  0  0  0  0  0  0  0
    6.3172   -1.0898    0.5110 C   0  0  0  0  0  0  0  0  0  0  0  0
    7.2683   -0.6998    1.4537 C   0  0  0  0  0  0  0  0  0  0  0  0
    8.5443   -1.1550    1.5105 N   0  0  0  0  0  0  0  0  0  0  0  0
    8.8869   -2.0836    0.6000 C   0  0  0  0  0  0  0  0  0  0  0  0
    8.0162   -2.6174   -0.3489 C   0  0  0  0  0  0  0  0  0  0  0  0
    8.4476   -3.6544   -1.2013 C   0  0  0  0  0  0  0  0  0  0  0  0
    7.5771   -4.2090   -2.1321 C   0  0  0  0  0  0  0  0  0  0  0  0
    6.2825   -3.7181   -2.2386 C   0  0  0  0  0  0  0  0  0  0  0  0
    5.8504   -2.6786   -1.4040 C   0  0  0  0  0  0  0  0  0  0  0  0
    6.6938   -2.1116   -0.4132 C   0  0  0  0  0  0  0  0  0  0  0  0
    2.3422    1.5184    1.9486 C   0  0  0  0  0  0  0  0  0  0  0  0
    1.2501    2.5222    1.6249 C   0  0  0  0  0  0  0  0  0  0  0  0
    1.7424    3.6703    0.9425 O   0  0  0  0  0  0  0  0  0  0  0  0
    2.5596    3.4128   -0.1208 C   0  0  0  0  0  0  0  0  0  0  0  0
    2.6655    4.4560   -1.0458 C   0  0  0  0  0  0  0  0  0  0  0  0
    3.4829    4.3257   -2.1680 C   0  0  0  0  0  0  0  0  0  0  0  0
    3.5342    5.6394   -3.2878 Cl  0  0  0  0  0  0  0  0  0  0  0  0
    4.2118    3.1506   -2.3548 C   0  0  0  0  0  0  0  0  0  0  0  0
    5.2545    2.9108   -3.7110 Cl  0  0  0  0  0  0  0  0  0  0  0  0
    4.1033    2.1075   -1.4263 C   0  0  0  0  0  0  0  0  0  0  0  0
    3.2748    2.2215   -0.2929 C   0  0  0  0  0  0  0  0  0  0  0  0
    0.9914   -0.8780   -1.0162 H   0  0  0  0  0  0  0  0  0  0  0  0
    1.1038    0.8814   -1.1279 H   0  0  0  0  0  0  0  0  0  0  0  0
    0.5026    0.0836    0.3720 H   0  0  0  0  0  0  0  0  0  0  0  0
    4.3681   -0.8520   -0.2397 H   0  0  0  0  0  0  0  0  0  0  0  0
    7.0516    0.0146    2.2414 H   0  0  0  0  0  0  0  0  0  0  0  0
    9.9238   -2.4045    0.6612 H   0  0  0  0  0  0  0  0  0  0  0  0
    9.4582   -4.0420   -1.1272 H   0  0  0  0  0  0  0  0  0  0  0  0
    7.9075   -5.0290   -2.7620 H   0  0  0  0  0  0  0  0  0  0  0  0
    5.6011   -4.1479   -2.9692 H   0  0  0  0  0  0  0  0  0  0  0  0
    4.8259   -2.3433   -1.5307 H   0  0  0  0  0  0  0  0  0  0  0  0
    3.0163    2.0309    2.6494 H   0  0  0  0  0  0  0  0  0  0  0  0
    1.9221    0.6578    2.4796 H   0  0  0  0  0  0  0  0  0  0  0  0
    0.8053    2.8776    2.5620 H   0  0  0  0  0  0  0  0  0  0  0  0
    0.4267    2.0959    1.0465 H   0  0  0  0  0  0  0  0  0  0  0  0
    2.0927    5.3674   -0.8887 H   0  0  0  0  0  0  0  0  0  0  0  0
    4.6758    1.1992   -1.6004 H   0  0  0  0  0  0  0  0  0  0  0  0
  1  2  1  0  0  0  0
  1 28  1  0  0  0  0
  1 29  1  0  0  0  0
  1 30  1  0  0  0  0
  3  2  1  6  0  0  0
  3  4  1  0  0  0  0
  3 17  1  0  0  0  0
  3 27  1  0  0  0  0
  4  5  2  0  0  0  0
  4  6  1  0  0  0  0
  6  7  1  0  0  0  0
  6 31  1  0  0  0  0
  7  8  1  0  0  0  0
  7 16  2  0  0  0  0
  8  9  2  0  0  0  0
  8 32  1  0  0  0  0
  9 10  1  0  0  0  0
 10 11  2  0  0  0  0
 10 33  1  0  0  0  0
 11 12  1  0  0  0  0
 11 16  1  0  0  0  0
 12 13  2  0  0  0  0
 12 34  1  0  0  0  0
 13 14  1  0  0  0  0
 13 35  1  0  0  0  0
 14 15  2  0  0  0  0
 14 36  1  0  0  0  0
 15 16  1  0  0  0  0
 15 37  1  0  0  0  0
 17 18  1  0  0  0  0
 17 38  1  0  0  0  0
 17 39  1  0  0  0  0
 18 19  1  0  0  0  0
 18 40  1  0  0  0  0
 18 41  1  0  0  0  0
 19 20  1  0  0  0  0
 20 21  1  0  0  0  0
 20 27  2  0  0  0  0
 21 22  2  0  0  0  0
 21 42  1  0  0  0  0
 22 23  1  0  0  0  0
 22 24  1  0  0  0  0
 24 25  1  0  0  0  0
 24 26  2  0  0  0  0
 26 27  1  0  0  0  0
 26 43  1  0  0  0  0
M  END
$$$$
