
 OpenBabel07202414143D

 53 57  0  0  1  0  0  0  0  0999 V2000
    4.2898    2.9798   -2.3744 C   0  0  0  0  0  0  0  0  0  0  0  0
    4.7135    1.6134   -2.1769 N   0  0  0  0  0  0  0  0  0  0  0  0
    3.8261    0.6706   -1.7122 C   0  0  0  0  0  0  0  0  0  0  0  0
    2.6640    0.9573   -1.4045 O   0  0  0  0  0  0  0  0  0  0  0  0
    4.3835   -0.7232   -1.4323 C   0  0  0  0  0  0  0  0  0  0  0  0
    4.9896   -1.4569   -2.5510 N   0  0  0  0  0  0  0  0  0  0  0  0
    4.2010   -2.3606   -3.4062 C   0  0  0  0  0  0  0  0  0  0  0  0
    4.7744   -3.8006   -3.3706 C   0  0  1  0  0  0  0  0  0  0  0  0
    4.4403   -4.3970   -2.0008 C   0  0  0  0  0  0  0  0  0  0  0  0
    3.7319   -5.6965   -2.2576 C   0  0  0  0  0  0  0  0  0  0  0  0
    3.6325   -5.9031   -3.6796 N   0  0  0  0  0  0  0  0  0  0  0  0
    2.7985   -6.9924   -4.1818 C   0  0  0  0  0  0  0  0  0  0  0  0
    2.0565   -6.8295   -5.3486 C   0  0  0  0  0  0  0  0  0  0  0  0
    0.9496   -7.5557   -5.6347 N   0  0  0  0  0  0  0  0  0  0  0  0
    0.6483   -8.5705   -4.8011 C   0  0  0  0  0  0  0  0  0  0  0  0
    1.4859   -9.0362   -3.7959 C   0  0  0  0  0  0  0  0  0  0  0  0
    1.2278  -10.2818   -3.1673 C   0  0  0  0  0  0  0  0  0  0  0  0
    2.0017  -10.7216   -2.1004 C   0  0  0  0  0  0  0  0  0  0  0  0
    3.0357   -9.9167   -1.6671 C   0  0  0  0  0  0  0  0  0  0  0  0
    3.9276  -10.3492   -0.2581 Cl  0  0  0  0  0  0  0  0  0  0  0  0
    3.3457   -8.7301   -2.3463 C   0  0  0  0  0  0  0  0  0  0  0  0
    2.5772   -8.2129   -3.4296 C   0  0  0  0  0  0  0  0  0  0  0  0
    4.0529   -4.7404   -4.3841 C   0  0  0  0  0  0  0  0  0  0  0  0
    3.9427   -4.5301   -5.5740 O   0  0  0  0  0  0  0  0  0  0  0  0
    6.2884   -3.7678   -3.5542 C   0  0  0  0  0  0  0  0  0  0  0  0
    7.0069   -4.9461   -3.8321 C   0  0  0  0  0  0  0  0  0  0  0  0
    8.4014   -4.9303   -3.9045 C   0  0  0  0  0  0  0  0  0  0  0  0
    9.2597   -6.3982   -4.1697 Cl  0  0  0  0  0  0  0  0  0  0  0  0
    9.1042   -3.7445   -3.7221 C   0  0  0  0  0  0  0  0  0  0  0  0
    8.4091   -2.5740   -3.4275 C   0  0  0  0  0  0  0  0  0  0  0  0
    7.0125   -2.5800   -3.3131 C   0  0  0  0  0  0  0  0  0  0  0  0
    6.3571   -1.3709   -2.7309 C   0  0  0  0  0  0  0  0  0  0  0  0
    7.0162   -0.4192   -2.3248 O   0  0  0  0  0  0  0  0  0  0  0  0
    5.0625    3.5303   -2.9146 H   0  0  0  0  0  0  0  0  0  0  0  0
    4.1063    3.4537   -1.4042 H   0  0  0  0  0  0  0  0  0  0  0  0
    3.3587    2.9859   -2.9482 H   0  0  0  0  0  0  0  0  0  0  0  0
    5.6736    1.3338   -2.3744 H   0  0  0  0  0  0  0  0  0  0  0  0
    3.5850   -1.3375   -1.0036 H   0  0  0  0  0  0  0  0  0  0  0  0
    5.1376   -0.6086   -0.6402 H   0  0  0  0  0  0  0  0  0  0  0  0
    4.2501   -1.9522   -4.4221 H   0  0  0  0  0  0  0  0  0  0  0  0
    3.1474   -2.3333   -3.0966 H   0  0  0  0  0  0  0  0  0  0  0  0
    3.7975   -3.7599   -1.3900 H   0  0  0  0  0  0  0  0  0  0  0  0
    5.3325   -4.5930   -1.3945 H   0  0  0  0  0  0  0  0  0  0  0  0
    2.7182   -5.6881   -1.8300 H   0  0  0  0  0  0  0  0  0  0  0  0
    4.3352   -6.4595   -1.8055 H   0  0  0  0  0  0  0  0  0  0  0  0
    2.2502   -6.0494   -6.0766 H   0  0  0  0  0  0  0  0  0  0  0  0
   -0.3449   -8.9922   -4.9363 H   0  0  0  0  0  0  0  0  0  0  0  0
    0.4395  -10.9342   -3.5358 H   0  0  0  0  0  0  0  0  0  0  0  0
    1.8061  -11.6797   -1.6258 H   0  0  0  0  0  0  0  0  0  0  0  0
    4.2533   -8.2509   -2.0127 H   0  0  0  0  0  0  0  0  0  0  0  0
    6.4949   -5.9002   -3.9570 H   0  0  0  0  0  0  0  0  0  0  0  0
   10.1908   -3.7307   -3.7704 H   0  0  0  0  0  0  0  0  0  0  0  0
    8.9697   -1.6608   -3.2225 H   0  0  0  0  0  0  0  0  0  0  0  0
  1  2  1  0  0  0  0
  1 34  1  0  0  0  0
  1 35  1  0  0  0  0
  1 36  1  0  0  0  0
  2  3  1  0  0  0  0
  2 37  1  0  0  0  0
  3  4  2  0  0  0  0
  3  5  1  0  0  0  0
  5  6  1  0  0  0  0
  5 38  1  0  0  0  0
  5 39  1  0  0  0  0
  6  7  1  0  0  0  0
  6 32  1  0  0  0  0
  7  8  1  0  0  0  0
  7 40  1  0  0  0  0
  7 41  1  0  0  0  0
  8  9  1  0  0  0  0
  8 23  1  6  0  0  0
  8 25  1  0  0  0  0
  9 10  1  0  0  0  0
  9 42  1  0  0  0  0
  9 43  1  0  0  0  0
 10 11  1  0  0  0  0
 10 44  1  0  0  0  0
 10 45  1  0  0  0  0
 11 12  1  0  0  0  0
 11 23  1  0  0  0  0
 12 13  1  0  0  0  0
 12 22  2  0  0  0  0
 13 14  2  0  0  0  0
 13 46  1  0  0  0  0
 14 15  1  0  0  0  0
 15 16  2  0  0  0  0
 15 47  1  0  0  0  0
 16 17  1  0  0  0  0
 16 22  1  0  0  0  0
 17 18  2  0  0  0  0
 17 48  1  0  0  0  0
 18 19  1  0  0  0  0
 18 49  1  0  0  0  0
 19 20  1  0  0  0  0
 19 21  2  0  0  0  0
 21 22  1  0  0  0  0
 21 50  1  0  0  0  0
 23 24  2  0  0  0  0
 25 26  1  0  0  0  0
 25 31  2  0  0  0  0
 26 27  2  0  0  0  0
 26 51  1  0  0  0  0
 27 28  1  0  0  0  0
 27 29  1  0  0  0  0
 29 30  2  0  0  0  0
 29 52  1  0  0  0  0
 30 31  1  0  0  0  0
 30 53  1  0  0  0  0
 31 32  1  0  0  0  0
 32 33  2  0  0  0  0
M  END
$$$$
