
 OpenBabel07202414133D

 50 53  0  0  1  0  0  0  0  0999 V2000
    1.0329    0.8877    0.4901 C   0  0  0  0  0  0  0  0  0  0  0  0
    2.4669    0.9840    0.2518 N   0  0  0  0  0  0  0  0  0  0  0  0
    2.8221    1.5300   -1.0401 C   0  0  0  0  0  0  0  0  0  0  0  0
    3.2676    0.2388    1.1029 C   0  0  0  0  0  0  0  0  0  0  0  0
    2.7330   -0.5681    1.8714 O   0  0  0  0  0  0  0  0  0  0  0  0
    4.6402    0.4092    1.1303 N   0  0  0  0  0  0  0  0  0  0  0  0
    5.4741    1.3759    0.4265 C   0  0  0  0  0  0  0  0  0  0  0  0
    5.9273    2.4940    1.3651 C   0  0  3  0  0  0  0  0  0  0  0  0
    4.7679    3.3672    1.8882 C   0  0  0  0  0  0  0  0  0  0  0  0
    4.4226    3.3841    3.0617 O   0  0  0  0  0  0  0  0  0  0  0  0
    4.2105    4.1559    0.8881 N   0  0  0  0  0  0  0  0  0  0  0  0
    3.2594    5.1988    1.0353 C   0  0  0  0  0  0  0  0  0  0  0  0
    2.8592    5.6854    2.2794 C   0  0  0  0  0  0  0  0  0  0  0  0
    2.1425    6.8195    2.4569 N   0  0  0  0  0  0  0  0  0  0  0  0
    1.7327    7.4554    1.3418 C   0  0  0  0  0  0  0  0  0  0  0  0
    1.9200    6.9777    0.0469 C   0  0  0  0  0  0  0  0  0  0  0  0
    1.3046    7.6036   -1.0514 C   0  0  0  0  0  0  0  0  0  0  0  0
    1.4343    7.0785   -2.3351 C   0  0  0  0  0  0  0  0  0  0  0  0
    2.2349    5.9656   -2.5417 C   0  0  0  0  0  0  0  0  0  0  0  0
    2.8914    5.3686   -1.4625 C   0  0  0  0  0  0  0  0  0  0  0  0
    2.7237    5.8274   -0.1292 C   0  0  0  0  0  0  0  0  0  0  0  0
    6.7312    1.8574    2.4746 C   0  0  0  0  0  0  0  0  0  0  0  0
    7.7669    2.5832    3.0794 C   0  0  0  0  0  0  0  0  0  0  0  0
    8.5225    2.0025    4.0884 C   0  0  0  0  0  0  0  0  0  0  0  0
    9.8203    2.8878    4.7894 Cl  0  0  0  0  0  0  0  0  0  0  0  0
    8.2452    0.7060    4.5172 C   0  0  0  0  0  0  0  0  0  0  0  0
    7.2132   -0.0244    3.9163 C   0  0  0  0  0  0  0  0  0  0  0  0
    6.4491    0.5348    2.8828 C   0  0  0  0  0  0  0  0  0  0  0  0
    5.3741   -0.3049    2.1943 C   0  0  0  0  0  0  0  0  0  0  0  0
    0.5036    1.6941   -0.0270 H   0  0  0  0  0  0  0  0  0  0  0  0
    0.8200    0.9700    1.5602 H   0  0  0  0  0  0  0  0  0  0  0  0
    0.6794   -0.0803    0.1214 H   0  0  0  0  0  0  0  0  0  0  0  0
    1.9403    1.6907   -1.6672 H   0  0  0  0  0  0  0  0  0  0  0  0
    3.5151    0.8719   -1.5674 H   0  0  0  0  0  0  0  0  0  0  0  0
    3.2562    2.5117   -0.8756 H   0  0  0  0  0  0  0  0  0  0  0  0
    5.0284    1.7897   -0.4645 H   0  0  0  0  0  0  0  0  0  0  0  0
    6.3479    0.8197    0.0552 H   0  0  0  0  0  0  0  0  0  0  0  0
    6.6012    3.1488    0.7964 H   0  0  0  0  0  0  0  0  0  0  0  0
    4.5784    4.0355   -0.0411 H   0  0  0  0  0  0  0  0  0  0  0  0
    3.1208    5.1987    3.2137 H   0  0  0  0  0  0  0  0  0  0  0  0
    1.2104    8.3905    1.5281 H   0  0  0  0  0  0  0  0  0  0  0  0
    0.6796    8.4822   -0.9053 H   0  0  0  0  0  0  0  0  0  0  0  0
    0.9033    7.5320   -3.1672 H   0  0  0  0  0  0  0  0  0  0  0  0
    2.3390    5.5478   -3.5403 H   0  0  0  0  0  0  0  0  0  0  0  0
    3.4995    4.5003   -1.6897 H   0  0  0  0  0  0  0  0  0  0  0  0
    7.9834    3.5982    2.7546 H   0  0  0  0  0  0  0  0  0  0  0  0
    8.8303    0.2604    5.3165 H   0  0  0  0  0  0  0  0  0  0  0  0
    7.0130   -1.0385    4.2638 H   0  0  0  0  0  0  0  0  0  0  0  0
    4.6992   -0.7011    2.9608 H   0  0  0  0  0  0  0  0  0  0  0  0
    5.8676   -1.1552    1.7054 H   0  0  0  0  0  0  0  0  0  0  0  0
  1  2  1  0  0  0  0
  1 30  1  0  0  0  0
  1 31  1  0  0  0  0
  1 32  1  0  0  0  0
  2  3  1  0  0  0  0
  2  4  1  0  0  0  0
  3 33  1  0  0  0  0
  3 34  1  0  0  0  0
  3 35  1  0  0  0  0
  4  5  2  0  0  0  0
  4  6  1  0  0  0  0
  6  7  1  0  0  0  0
  6 29  1  0  0  0  0
  7  8  1  0  0  0  0
  7 36  1  0  0  0  0
  7 37  1  0  0  0  0
  8  9  1  0  0  0  0
  8 22  1  0  0  0  0
  8 38  1  0  0  0  0
  9 10  2  0  0  0  0
  9 11  1  0  0  0  0
 11 12  1  0  0  0  0
 11 39  1  0  0  0  0
 12 13  1  0  0  0  0
 12 21  2  0  0  0  0
 13 14  2  0  0  0  0
 13 40  1  0  0  0  0
 14 15  1  0  0  0  0
 15 16  2  0  0  0  0
 15 41  1  0  0  0  0
 16 17  1  0  0  0  0
 16 21  1  0  0  0  0
 17 18  2  0  0  0  0
 17 42  1  0  0  0  0
 18 19  1  0  0  0  0
 18 43  1  0  0  0  0
 19 20  2  0  0  0  0
 19 44  1  0  0  0  0
 20 21  1  0  0  0  0
 20 45  1  0  0  0  0
 22 23  1  0  0  0  0
 22 28  2  0  0  0  0
 23 24  2  0  0  0  0
 23 46  1  0  0  0  0
 24 25  1  0  0  0  0
 24 26  1  0  0  0  0
 26 27  2  0  0  0  0
 26 47  1  0  0  0  0
 27 28  1  0  0  0  0
 27 48  1  0  0  0  0
 28 29  1  0  0  0  0
 29 49  1  0  0  0  0
 29 50  1  0  0  0  0
M  END
$$$$
