
 OpenBabel07202414143D

 31 31  0  0  0  0  0  0  0  0999 V2000
    2.8787    2.7729    1.8705 C   0  0  0  0  0  0  0  0  0  0  0  0
    2.5422    1.6701    0.9668 N   0  0  0  0  0  0  0  0  0  0  0  0
    2.9949    1.7915   -0.6566 S   0  0  0  0  0  0  0  0  0  0  0  0
    2.4281    0.6480   -1.3367 O   0  0  0  0  0  0  0  0  0  0  0  0
    2.6814    3.1330   -1.0985 O   0  0  0  0  0  0  0  0  0  0  0  0
    4.7670    1.6166   -0.5711 C   0  0  0  0  0  0  0  0  0  0  0  0
    5.4863    2.8151   -0.3917 C   0  0  0  0  0  0  0  0  0  0  0  0
    6.8734    2.8054   -0.2815 C   0  0  0  0  0  0  0  0  0  0  0  0
    7.5568    1.6005   -0.3610 C   0  0  0  0  0  0  0  0  0  0  0  0
    6.8544    0.4128   -0.5714 C   0  0  0  0  0  0  0  0  0  0  0  0
    5.4475    0.3911   -0.6864 C   0  0  0  0  0  0  0  0  0  0  0  0
    4.8112   -0.9491   -0.9635 C   0  0  0  0  0  0  0  0  0  0  0  0
    4.7327   -1.2263   -2.3810 N   0  0  0  0  0  0  0  0  0  0  0  0
    5.7088   -1.9357   -3.0355 C   0  0  0  0  0  0  0  0  0  0  0  0
    6.7387   -2.3471   -2.5125 O   0  0  0  0  0  0  0  0  0  0  0  0
    5.3821   -2.2023   -4.4639 C   0  0  0  0  0  0  0  0  0  0  0  0
    6.2054   -2.9407   -5.2240 C   0  0  0  0  0  0  0  0  0  0  0  0
    2.2443    2.7188    2.7603 H   0  0  0  0  0  0  0  0  0  0  0  0
    2.7102    3.7493    1.4090 H   0  0  0  0  0  0  0  0  0  0  0  0
    3.9205    2.6946    2.1932 H   0  0  0  0  0  0  0  0  0  0  0  0
    1.6103    1.2672    1.0605 H   0  0  0  0  0  0  0  0  0  0  0  0
    4.9658    3.7696   -0.3314 H   0  0  0  0  0  0  0  0  0  0  0  0
    7.4169    3.7357   -0.1392 H   0  0  0  0  0  0  0  0  0  0  0  0
    8.6401    1.5792   -0.2769 H   0  0  0  0  0  0  0  0  0  0  0  0
    7.4198   -0.5159   -0.6610 H   0  0  0  0  0  0  0  0  0  0  0  0
    3.8135   -1.0399   -0.5305 H   0  0  0  0  0  0  0  0  0  0  0  0
    5.3975   -1.7412   -0.4806 H   0  0  0  0  0  0  0  0  0  0  0  0
    3.9136   -0.8896   -2.8722 H   0  0  0  0  0  0  0  0  0  0  0  0
    4.4646   -1.8041   -4.8730 H   0  0  0  0  0  0  0  0  0  0  0  0
    7.1301   -3.3531   -4.8285 H   0  0  0  0  0  0  0  0  0  0  0  0
    5.9683   -3.1566   -6.2602 H   0  0  0  0  0  0  0  0  0  0  0  0
  1  2  1  0  0  0  0
  1 18  1  0  0  0  0
  1 19  1  0  0  0  0
  1 20  1  0  0  0  0
  2  3  1  0  0  0  0
  2 21  1  0  0  0  0
  3  4  2  0  0  0  0
  3  5  2  0  0  0  0
  3  6  1  0  0  0  0
  6  7  1  0  0  0  0
  6 11  2  0  0  0  0
  7  8  2  0  0  0  0
  7 22  1  0  0  0  0
  8  9  1  0  0  0  0
  8 23  1  0  0  0  0
  9 10  2  0  0  0  0
  9 24  1  0  0  0  0
 10 11  1  0  0  0  0
 10 25  1  0  0  0  0
 11 12  1  0  0  0  0
 12 13  1  0  0  0  0
 12 26  1  0  0  0  0
 12 27  1  0  0  0  0
 13 14  1  0  0  0  0
 13 28  1  0  0  0  0
 14 15  2  0  0  0  0
 14 16  1  0  0  0  0
 16 17  2  0  0  0  0
 16 29  1  0  0  0  0
 17 30  1  0  0  0  0
 17 31  1  0  0  0  0
M  END
$$$$
