
 OpenBabel07202414133D

 49 52  0  0  0  0  0  0  0  0999 V2000
    9.4925    3.7605   -2.5918 C   0  0  0  0  0  0  0  0  0  0  0  0
    8.4101    2.7689   -2.2939 C   0  0  0  0  0  0  0  0  0  0  0  0
    7.3478    3.0990   -1.4480 C   0  0  0  0  0  0  0  0  0  0  0  0
    6.3552    2.1624   -1.1165 C   0  0  0  0  0  0  0  0  0  0  0  0
    5.2806    2.5359   -0.2808 N   0  0  0  0  0  0  0  0  0  0  0  0
    4.5258    3.7236   -0.2631 C   0  0  0  0  0  0  0  0  0  0  0  0
    3.8823    4.1063    0.9178 C   0  0  0  0  0  0  0  0  0  0  0  0
    3.2099    5.3276    0.9898 C   0  0  0  0  0  0  0  0  0  0  0  0
    2.4580    5.7910    2.4707 Cl  0  0  0  0  0  0  0  0  0  0  0  0
    3.1521    6.1786   -0.1088 C   0  0  0  0  0  0  0  0  0  0  0  0
    3.7730    5.8113   -1.3075 C   0  0  0  0  0  0  0  0  0  0  0  0
    3.7542    6.7348   -2.5041 C   0  0  0  0  0  0  0  0  0  0  0  0
    3.1952    6.1197   -3.7712 C   0  0  0  0  0  0  0  0  0  0  0  0
    3.7987    6.2107   -4.8433 O   0  0  0  0  0  0  0  0  0  0  0  0
    1.9398    5.5509   -3.6228 N   0  0  0  0  0  0  0  0  0  0  0  0
    1.1699    5.0961   -4.7206 C   0  0  0  0  0  0  0  0  0  0  0  0
   -0.1044    5.6442   -4.8765 C   0  0  0  0  0  0  0  0  0  0  0  0
   -0.9595    5.3373   -5.8729 N   0  0  0  0  0  0  0  0  0  0  0  0
   -0.5615    4.3542   -6.7070 C   0  0  0  0  0  0  0  0  0  0  0  0
    0.6267    3.6341   -6.5763 C   0  0  0  0  0  0  0  0  0  0  0  0
    0.8644    2.4903   -7.3590 C   0  0  0  0  0  0  0  0  0  0  0  0
    2.0344    1.7530   -7.2020 C   0  0  0  0  0  0  0  0  0  0  0  0
    3.0074    2.1927   -6.3122 C   0  0  0  0  0  0  0  0  0  0  0  0
    2.7770    3.3250   -5.5242 C   0  0  0  0  0  0  0  0  0  0  0  0
    1.5616    4.0501   -5.5991 C   0  0  0  0  0  0  0  0  0  0  0  0
    4.4638    4.5909   -1.3665 C   0  0  0  0  0  0  0  0  0  0  0  0
    6.4371    0.8778   -1.6855 C   0  0  0  0  0  0  0  0  0  0  0  0
    5.2327   -0.3169   -1.3503 Cl  0  0  0  0  0  0  0  0  0  0  0  0
    7.4848    0.5364   -2.5422 C   0  0  0  0  0  0  0  0  0  0  0  0
    8.4612    1.4825   -2.8351 C   0  0  0  0  0  0  0  0  0  0  0  0
    9.4699    1.1396   -3.6487 F   0  0  0  0  0  0  0  0  0  0  0  0
    9.2421    4.7511   -2.1997 H   0  0  0  0  0  0  0  0  0  0  0  0
    9.6359    3.8610   -3.6719 H   0  0  0  0  0  0  0  0  0  0  0  0
   10.4318    3.4414   -2.1289 H   0  0  0  0  0  0  0  0  0  0  0  0
    7.3065    4.0959   -1.0099 H   0  0  0  0  0  0  0  0  0  0  0  0
    4.8664    1.7615    0.2291 H   0  0  0  0  0  0  0  0  0  0  0  0
    3.9385    3.4673    1.7934 H   0  0  0  0  0  0  0  0  0  0  0  0
    2.6385    7.1332   -0.0186 H   0  0  0  0  0  0  0  0  0  0  0  0
    4.7815    7.0646   -2.6977 H   0  0  0  0  0  0  0  0  0  0  0  0
    3.1648    7.6354   -2.2930 H   0  0  0  0  0  0  0  0  0  0  0  0
    1.4136    5.9170   -2.8360 H   0  0  0  0  0  0  0  0  0  0  0  0
   -0.4795    6.3990   -4.1913 H   0  0  0  0  0  0  0  0  0  0  0  0
   -1.2655    4.1355   -7.5070 H   0  0  0  0  0  0  0  0  0  0  0  0
    0.1106    2.1363   -8.0602 H   0  0  0  0  0  0  0  0  0  0  0  0
    2.1836    0.8382   -7.7696 H   0  0  0  0  0  0  0  0  0  0  0  0
    3.9405    1.6434   -6.2140 H   0  0  0  0  0  0  0  0  0  0  0  0
    3.5577    3.6263   -4.8309 H   0  0  0  0  0  0  0  0  0  0  0  0
    4.9485    4.3042   -2.2999 H   0  0  0  0  0  0  0  0  0  0  0  0
    7.5505   -0.4501   -2.9881 H   0  0  0  0  0  0  0  0  0  0  0  0
  1  2  1  0  0  0  0
  1 32  1  0  0  0  0
  1 33  1  0  0  0  0
  1 34  1  0  0  0  0
  2  3  2  0  0  0  0
  2 30  1  0  0  0  0
  3  4  1  0  0  0  0
  3 35  1  0  0  0  0
  4  5  1  0  0  0  0
  4 27  2  0  0  0  0
  5  6  1  0  0  0  0
  5 36  1  0  0  0  0
  6  7  2  0  0  0  0
  6 26  1  0  0  0  0
  7  8  1  0  0  0  0
  7 37  1  0  0  0  0
  8  9  1  0  0  0  0
  8 10  2  0  0  0  0
 10 11  1  0  0  0  0
 10 38  1  0  0  0  0
 11 12  1  0  0  0  0
 11 26  2  0  0  0  0
 12 13  1  0  0  0  0
 12 39  1  0  0  0  0
 12 40  1  0  0  0  0
 13 14  2  0  0  0  0
 13 15  1  0  0  0  0
 15 16  1  0  0  0  0
 15 41  1  0  0  0  0
 16 17  2  0  0  0  0
 16 25  1  0  0  0  0
 17 18  1  0  0  0  0
 17 42  1  0  0  0  0
 18 19  2  0  0  0  0
 19 20  1  0  0  0  0
 19 43  1  0  0  0  0
 20 21  2  0  0  0  0
 20 25  1  0  0  0  0
 21 22  1  0  0  0  0
 21 44  1  0  0  0  0
 22 23  2  0  0  0  0
 22 45  1  0  0  0  0
 23 24  1  0  0  0  0
 23 46  1  0  0  0  0
 24 25  2  0  0  0  0
 24 47  1  0  0  0  0
 26 48  1  0  0  0  0
 27 28  1  0  0  0  0
 27 29  1  0  0  0  0
 29 30  2  0  0  0  0
 29 49  1  0  0  0  0
 30 31  1  0  0  0  0
M  END
$$$$
