
 OpenBabel07202414183D

 37 40  0  0  0  0  0  0  0  0999 V2000
    1.5573   -0.3213   -2.0824 F   0  0  0  0  0  0  0  0  0  0  0  0
    2.7482   -0.2801   -1.4690 C   0  0  0  0  0  0  0  0  0  0  0  0
    3.4185    0.9318   -1.3802 C   0  0  0  0  0  0  0  0  0  0  0  0
    4.6526    0.9711   -0.7407 C   0  0  0  0  0  0  0  0  0  0  0  0
    5.1999   -0.2067   -0.2137 C   0  0  0  0  0  0  0  0  0  0  0  0
    6.4435   -0.1327    0.4168 N   0  0  0  0  0  0  0  0  0  0  0  0
    7.0821   -1.2074    0.9545 C   0  0  0  0  0  0  0  0  0  0  0  0
    8.1748   -1.1119    1.5009 O   0  0  0  0  0  0  0  0  0  0  0  0
    6.3996   -2.5158    0.8573 C   0  0  0  0  0  0  0  0  0  0  0  0
    5.2090   -2.6661    0.2481 C   0  0  0  0  0  0  0  0  0  0  0  0
    4.5643   -4.0302    0.2745 C   0  0  0  0  0  0  0  0  0  0  0  0
    3.3371   -4.1551    0.2889 O   0  0  0  0  0  0  0  0  0  0  0  0
    5.3793   -5.1553    0.2897 N   0  0  0  0  0  0  0  0  0  0  0  0
    4.7097   -6.3808    0.4906 N   0  0  0  0  0  0  0  0  0  0  0  0
    5.1551   -7.5799    0.0361 C   0  0  0  0  0  0  0  0  0  0  0  0
    6.3245   -7.9703   -0.4227 N   0  0  0  0  0  0  0  0  0  0  0  0
    6.1536   -9.3014   -0.7792 C   0  0  0  0  0  0  0  0  0  0  0  0
    7.0518  -10.2317   -1.3398 C   0  0  0  0  0  0  0  0  0  0  0  0
    6.5914  -11.5232   -1.6521 C   0  0  0  0  0  0  0  0  0  0  0  0
    5.2686  -11.8924   -1.4039 C   0  0  0  0  0  0  0  0  0  0  0  0
    4.3700  -10.9992   -0.8152 C   0  0  0  0  0  0  0  0  0  0  0  0
    4.8578   -9.7201   -0.5217 C   0  0  0  0  0  0  0  0  0  0  0  0
    4.2700   -8.6279    0.0508 N   0  0  0  0  0  0  0  0  0  0  0  0
    4.5384   -1.4509   -0.3079 C   0  0  0  0  0  0  0  0  0  0  0  0
    3.2891   -1.4565   -0.9423 C   0  0  0  0  0  0  0  0  0  0  0  0
    2.9774    1.8283   -1.8057 H   0  0  0  0  0  0  0  0  0  0  0  0
    5.1808    1.9187   -0.6652 H   0  0  0  0  0  0  0  0  0  0  0  0
    6.9252    0.7540    0.4982 H   0  0  0  0  0  0  0  0  0  0  0  0
    6.9368   -3.3192    1.3454 H   0  0  0  0  0  0  0  0  0  0  0  0
    6.3930   -5.1854    0.3307 H   0  0  0  0  0  0  0  0  0  0  0  0
    3.6966   -6.2206    0.5155 H   0  0  0  0  0  0  0  0  0  0  0  0
    8.0826   -9.9520   -1.5381 H   0  0  0  0  0  0  0  0  0  0  0  0
    7.2724  -12.2456   -2.0986 H   0  0  0  0  0  0  0  0  0  0  0  0
    4.9287  -12.8929   -1.6704 H   0  0  0  0  0  0  0  0  0  0  0  0
    3.3439  -11.2856   -0.6112 H   0  0  0  0  0  0  0  0  0  0  0  0
    3.3307   -8.5879    0.4213 H   0  0  0  0  0  0  0  0  0  0  0  0
    2.6993   -2.3623   -1.0501 H   0  0  0  0  0  0  0  0  0  0  0  0
  1  2  1  0  0  0  0
  2  3  1  0  0  0  0
  2 25  2  0  0  0  0
  3  4  2  0  0  0  0
  3 26  1  0  0  0  0
  4  5  1  0  0  0  0
  4 27  1  0  0  0  0
  5  6  1  0  0  0  0
  5 24  2  0  0  0  0
  6  7  1  0  0  0  0
  6 28  1  0  0  0  0
  7  8  2  0  0  0  0
  7  9  1  0  0  0  0
  9 10  2  0  0  0  0
  9 29  1  0  0  0  0
 10 11  1  0  0  0  0
 10 24  1  0  0  0  0
 11 12  2  0  0  0  0
 11 13  1  0  0  0  0
 13 14  1  0  0  0  0
 13 30  1  0  0  0  0
 14 15  1  0  0  0  0
 14 31  1  0  0  0  0
 15 16  2  0  0  0  0
 15 23  1  0  0  0  0
 16 17  1  0  0  0  0
 17 18  1  0  0  0  0
 17 22  2  0  0  0  0
 18 19  2  0  0  0  0
 18 32  1  0  0  0  0
 19 20  1  0  0  0  0
 19 33  1  0  0  0  0
 20 21  2  0  0  0  0
 20 34  1  0  0  0  0
 21 22  1  0  0  0  0
 21 35  1  0  0  0  0
 22 23  1  0  0  0  0
 23 36  1  0  0  0  0
 24 25  1  0  0  0  0
 25 37  1  0  0  0  0
M  END
$$$$
