
 OpenBabel07202414183D

 53 56  0  0  0  0  0  0  0  0999 V2000
    3.0982   -7.9156    3.0797 F   0  0  0  0  0  0  0  0  0  0  0  0
    4.1025   -8.6195    2.5183 C   0  0  0  0  0  0  0  0  0  0  0  0
    4.7305   -9.2939    3.5122 F   0  0  0  0  0  0  0  0  0  0  0  0
    3.5535   -9.5448    1.6981 F   0  0  0  0  0  0  0  0  0  0  0  0
    5.0934   -7.7409    1.7629 C   0  0  0  0  0  0  0  0  0  0  0  0
    4.5996   -6.4087    1.5209 O   0  0  0  0  0  0  0  0  0  0  0  0
    5.3788   -5.6260    0.6895 C   0  0  0  0  0  0  0  0  0  0  0  0
    4.8069   -4.4170    0.2148 C   0  0  0  0  0  0  0  0  0  0  0  0
    3.4472   -4.1119    0.4871 N   0  0  0  0  0  0  0  0  0  0  0  0
    2.4846   -3.2540   -0.0984 C   0  0  0  0  0  0  0  0  0  0  0  0
    2.7125   -2.5048   -1.2619 C   0  0  0  0  0  0  0  0  0  0  0  0
    1.7992   -1.5445   -1.7379 C   0  0  0  0  0  0  0  0  0  0  0  0
    2.1986   -0.6010   -2.8560 C   0  0  0  0  0  0  0  0  0  0  0  0
    2.6656    0.7955   -2.4148 C   0  0  0  0  0  0  0  0  0  0  0  0
    2.7133    1.7195   -3.2201 O   0  0  0  0  0  0  0  0  0  0  0  0
    3.1195    0.8812   -1.1142 N   0  0  0  0  0  0  0  0  0  0  0  0
    3.5637    2.0692   -0.4802 C   0  0  0  0  0  0  0  0  0  0  0  0
    4.7902    2.0112    0.1837 C   0  0  0  0  0  0  0  0  0  0  0  0
    5.2911    2.9848    0.9684 N   0  0  0  0  0  0  0  0  0  0  0  0
    4.4617    4.0195    1.2145 C   0  0  0  0  0  0  0  0  0  0  0  0
    3.1675    4.1374    0.7054 C   0  0  0  0  0  0  0  0  0  0  0  0
    2.2863    5.1166    1.1968 C   0  0  0  0  0  0  0  0  0  0  0  0
    1.0007    5.2398    0.6783 C   0  0  0  0  0  0  0  0  0  0  0  0
    0.6165    4.4438   -0.3922 C   0  0  0  0  0  0  0  0  0  0  0  0
    1.4678    3.4345   -0.8534 C   0  0  0  0  0  0  0  0  0  0  0  0
    2.7353    3.2028   -0.2643 C   0  0  0  0  0  0  0  0  0  0  0  0
    0.5556   -1.4401   -1.1180 C   0  0  0  0  0  0  0  0  0  0  0  0
    0.2548   -2.2719   -0.0368 C   0  0  0  0  0  0  0  0  0  0  0  0
   -1.3196   -2.2066    0.6541 Cl  0  0  0  0  0  0  0  0  0  0  0  0
    1.2146   -3.1512    0.4843 C   0  0  0  0  0  0  0  0  0  0  0  0
    5.6060   -3.6105   -0.6070 C   0  0  0  0  0  0  0  0  0  0  0  0
    6.8685   -4.0129   -1.0448 C   0  0  0  0  0  0  0  0  0  0  0  0
    7.4092   -5.2002   -0.5863 C   0  0  0  0  0  0  0  0  0  0  0  0
    6.6867   -5.9822    0.3104 C   0  0  0  0  0  0  0  0  0  0  0  0
    5.3125   -8.2308    0.8053 H   0  0  0  0  0  0  0  0  0  0  0  0
    6.0153   -7.6828    2.3559 H   0  0  0  0  0  0  0  0  0  0  0  0
    3.1395   -4.5706    1.3473 H   0  0  0  0  0  0  0  0  0  0  0  0
    3.6070   -2.6582   -1.8515 H   0  0  0  0  0  0  0  0  0  0  0  0
    1.3395   -0.4628   -3.5219 H   0  0  0  0  0  0  0  0  0  0  0  0
    2.9981   -1.0527   -3.4572 H   0  0  0  0  0  0  0  0  0  0  0  0
    3.4600    0.0201   -0.7028 H   0  0  0  0  0  0  0  0  0  0  0  0
    5.4356    1.1400    0.0928 H   0  0  0  0  0  0  0  0  0  0  0  0
    4.8754    4.7763    1.8771 H   0  0  0  0  0  0  0  0  0  0  0  0
    2.5798    5.7511    2.0311 H   0  0  0  0  0  0  0  0  0  0  0  0
    0.3055    5.9582    1.1046 H   0  0  0  0  0  0  0  0  0  0  0  0
   -0.3580    4.5838   -0.8530 H   0  0  0  0  0  0  0  0  0  0  0  0
    1.1228    2.8249   -1.6833 H   0  0  0  0  0  0  0  0  0  0  0  0
   -0.1851   -0.7309   -1.4833 H   0  0  0  0  0  0  0  0  0  0  0  0
    0.9566   -3.7492    1.3568 H   0  0  0  0  0  0  0  0  0  0  0  0
    5.2859   -2.6249   -0.9131 H   0  0  0  0  0  0  0  0  0  0  0  0
    7.4238   -3.3894   -1.7402 H   0  0  0  0  0  0  0  0  0  0  0  0
    8.3977   -5.5120   -0.9126 H   0  0  0  0  0  0  0  0  0  0  0  0
    7.1787   -6.8741    0.6818 H   0  0  0  0  0  0  0  0  0  0  0  0
  1  2  1  0  0  0  0
  2  3  1  0  0  0  0
  2  4  1  0  0  0  0
  2  5  1  0  0  0  0
  5  6  1  0  0  0  0
  5 35  1  0  0  0  0
  5 36  1  0  0  0  0
  6  7  1  0  0  0  0
  7  8  2  0  0  0  0
  7 34  1  0  0  0  0
  8  9  1  0  0  0  0
  8 31  1  0  0  0  0
  9 10  1  0  0  0  0
  9 37  1  0  0  0  0
 10 11  2  0  0  0  0
 10 30  1  0  0  0  0
 11 12  1  0  0  0  0
 11 38  1  0  0  0  0
 12 13  1  0  0  0  0
 12 27  2  0  0  0  0
 13 14  1  0  0  0  0
 13 39  1  0  0  0  0
 13 40  1  0  0  0  0
 14 15  2  0  0  0  0
 14 16  1  0  0  0  0
 16 17  1  0  0  0  0
 16 41  1  0  0  0  0
 17 18  2  0  0  0  0
 17 26  1  0  0  0  0
 18 19  1  0  0  0  0
 18 42  1  0  0  0  0
 19 20  2  0  0  0  0
 20 21  1  0  0  0  0
 20 43  1  0  0  0  0
 21 22  2  0  0  0  0
 21 26  1  0  0  0  0
 22 23  1  0  0  0  0
 22 44  1  0  0  0  0
 23 24  2  0  0  0  0
 23 45  1  0  0  0  0
 24 25  1  0  0  0  0
 24 46  1  0  0  0  0
 25 26  2  0  0  0  0
 25 47  1  0  0  0  0
 27 28  1  0  0  0  0
 27 48  1  0  0  0  0
 28 29  1  0  0  0  0
 28 30  2  0  0  0  0
 30 49  1  0  0  0  0
 31 32  2  0  0  0  0
 31 50  1  0  0  0  0
 32 33  1  0  0  0  0
 32 51  1  0  0  0  0
 33 34  2  0  0  0  0
 33 52  1  0  0  0  0
 34 53  1  0  0  0  0
M  END
$$$$
