
 OpenBabel07202414173D

 52 56  0  0  1  0  0  0  0  0999 V2000
    0.9251   -0.0695    0.0502 Cl  0  0  0  0  0  0  0  0  0  0  0  0
    2.6423   -0.1414    0.0974 C   0  0  0  0  0  0  0  0  0  0  0  0
    3.3839    1.0253   -0.0656 C   0  0  0  0  0  0  0  0  0  0  0  0
    4.7834    0.9785   -0.0646 C   0  0  0  0  0  0  0  0  0  0  0  0
    5.5765    2.0875   -0.2633 O   0  0  0  0  0  0  0  0  0  0  0  0
    4.9369    3.1927   -0.9159 C   0  0  0  0  0  0  0  0  0  0  0  0
    5.9211    4.1710   -1.4965 C   0  0  0  0  0  0  0  0  0  0  0  0
    7.2200    3.8173   -1.8636 C   0  0  0  0  0  0  0  0  0  0  0  0
    8.0423    4.7581   -2.4773 C   0  0  0  0  0  0  0  0  0  0  0  0
    7.5334    6.0243   -2.7151 C   0  0  0  0  0  0  0  0  0  0  0  0
    6.2810    6.4024   -2.3858 N   0  0  0  0  0  0  0  0  0  0  0  0
    5.5059    5.4686   -1.7914 C   0  0  0  0  0  0  0  0  0  0  0  0
    5.4337   -0.2487    0.1762 C   0  0  0  0  0  0  0  0  0  0  0  0
    4.6802   -1.4212    0.3567 C   0  0  0  0  0  0  0  0  0  0  0  0
    3.2790   -1.3593    0.3021 C   0  0  0  0  0  0  0  0  0  0  0  0
    5.3493   -2.7388    0.6840 C   0  0  3  0  0  0  0  0  0  0  0  0
    5.2407   -3.1313    2.1744 C   0  0  0  0  0  0  0  0  0  0  0  0
    5.2318   -4.3138    2.4999 O   0  0  0  0  0  0  0  0  0  0  0  0
    5.2154   -2.0606    3.0508 N   0  0  0  0  0  0  0  0  0  0  0  0
    4.9372   -2.0648    4.4397 C   0  0  0  0  0  0  0  0  0  0  0  0
    4.6568   -3.2282    5.1557 C   0  0  0  0  0  0  0  0  0  0  0  0
    4.2297   -3.2485    6.4400 N   0  0  0  0  0  0  0  0  0  0  0  0
    4.1084   -2.0535    7.0542 C   0  0  0  0  0  0  0  0  0  0  0  0
    4.4475   -0.8280    6.4812 C   0  0  0  0  0  0  0  0  0  0  0  0
    4.3725    0.3666    7.2217 C   0  0  0  0  0  0  0  0  0  0  0  0
    4.7356    1.5843    6.6505 C   0  0  0  0  0  0  0  0  0  0  0  0
    5.1564    1.6248    5.3295 C   0  0  0  0  0  0  0  0  0  0  0  0
    5.2224    0.4455    4.5819 C   0  0  0  0  0  0  0  0  0  0  0  0
    4.8766   -0.8190    5.1345 C   0  0  0  0  0  0  0  0  0  0  0  0
    6.8004   -2.7030    0.2245 C   0  0  0  0  0  0  0  0  0  0  0  0
    7.4614   -1.4185    0.6904 C   0  0  0  0  0  0  0  0  0  0  0  0
    6.8046   -0.2399    0.2148 O   0  0  0  0  0  0  0  0  0  0  0  0
    2.8456    1.9596   -0.1873 H   0  0  0  0  0  0  0  0  0  0  0  0
    4.3128    3.7137   -0.1788 H   0  0  0  0  0  0  0  0  0  0  0  0
    4.3195    2.8392   -1.7509 H   0  0  0  0  0  0  0  0  0  0  0  0
    7.5911    2.8109   -1.6835 H   0  0  0  0  0  0  0  0  0  0  0  0
    9.0535    4.5047   -2.7733 H   0  0  0  0  0  0  0  0  0  0  0  0
    8.1358    6.7887   -3.1973 H   0  0  0  0  0  0  0  0  0  0  0  0
    4.4972    5.8056   -1.5632 H   0  0  0  0  0  0  0  0  0  0  0  0
    2.6838   -2.2613    0.4345 H   0  0  0  0  0  0  0  0  0  0  0  0
    4.8323   -3.5280    0.1203 H   0  0  0  0  0  0  0  0  0  0  0  0
    5.2716   -1.1445    2.6338 H   0  0  0  0  0  0  0  0  0  0  0  0
    4.7524   -4.2178    4.7214 H   0  0  0  0  0  0  0  0  0  0  0  0
    3.7188   -2.1127    8.0678 H   0  0  0  0  0  0  0  0  0  0  0  0
    4.0511    0.3509    8.2615 H   0  0  0  0  0  0  0  0  0  0  0  0
    4.7033    2.4961    7.2401 H   0  0  0  0  0  0  0  0  0  0  0  0
    5.4444    2.5712    4.8772 H   0  0  0  0  0  0  0  0  0  0  0  0
    5.5805    0.5427    3.5605 H   0  0  0  0  0  0  0  0  0  0  0  0
    6.8243   -2.7316   -0.8731 H   0  0  0  0  0  0  0  0  0  0  0  0
    7.3539   -3.5754    0.5889 H   0  0  0  0  0  0  0  0  0  0  0  0
    8.4892   -1.3879    0.3124 H   0  0  0  0  0  0  0  0  0  0  0  0
    7.5323   -1.3711    1.7830 H   0  0  0  0  0  0  0  0  0  0  0  0
  1  2  1  0  0  0  0
  2  3  1  0  0  0  0
  2 15  2  0  0  0  0
  3  4  2  0  0  0  0
  3 33  1  0  0  0  0
  4  5  1  0  0  0  0
  4 13  1  0  0  0  0
  5  6  1  0  0  0  0
  6  7  1  0  0  0  0
  6 34  1  0  0  0  0
  6 35  1  0  0  0  0
  7  8  1  0  0  0  0
  7 12  2  0  0  0  0
  8  9  2  0  0  0  0
  8 36  1  0  0  0  0
  9 10  1  0  0  0  0
  9 37  1  0  0  0  0
 10 11  2  0  0  0  0
 10 38  1  0  0  0  0
 11 12  1  0  0  0  0
 12 39  1  0  0  0  0
 13 14  2  0  0  0  0
 13 32  1  0  0  0  0
 14 15  1  0  0  0  0
 14 16  1  0  0  0  0
 15 40  1  0  0  0  0
 16 17  1  0  0  0  0
 16 30  1  0  0  0  0
 16 41  1  0  0  0  0
 17 18  2  0  0  0  0
 17 19  1  0  0  0  0
 19 20  1  0  0  0  0
 19 42  1  0  0  0  0
 20 21  1  0  0  0  0
 20 29  2  0  0  0  0
 21 22  2  0  0  0  0
 21 43  1  0  0  0  0
 22 23  1  0  0  0  0
 23 24  2  0  0  0  0
 23 44  1  0  0  0  0
 24 25  1  0  0  0  0
 24 29  1  0  0  0  0
 25 26  2  0  0  0  0
 25 45  1  0  0  0  0
 26 27  1  0  0  0  0
 26 46  1  0  0  0  0
 27 28  2  0  0  0  0
 27 47  1  0  0  0  0
 28 29  1  0  0  0  0
 28 48  1  0  0  0  0
 30 31  1  0  0  0  0
 30 49  1  0  0  0  0
 30 50  1  0  0  0  0
 31 32  1  0  0  0  0
 31 51  1  0  0  0  0
 31 52  1  0  0  0  0
M  END
$$$$
