
 OpenBabel07202414143D

 43 46  0  0  1  0  0  0  0  0999 V2000
    0.9551    0.1387    0.2001 C   0  0  0  0  0  0  0  0  0  0  0  0
    2.4023    0.1487    0.3504 N   0  0  0  0  0  0  0  0  0  0  0  0
    2.9239   -1.0629    0.9777 C   0  0  0  0  0  0  0  0  0  0  0  0
    4.4390   -1.1564    0.7452 C   0  0  0  0  0  0  0  0  0  0  0  0
    5.1715    0.1548    0.9272 C   0  0  0  0  0  0  0  0  0  0  0  0
    6.5712    0.1636    0.9869 C   0  0  0  0  0  0  0  0  0  0  0  0
    7.2635    1.3708    1.0841 C   0  0  0  0  0  0  0  0  0  0  0  0
    6.5620    2.5739    1.1094 C   0  0  0  0  0  0  0  0  0  0  0  0
    7.4226    4.0594    1.2181 Cl  0  0  0  0  0  0  0  0  0  0  0  0
    5.1691    2.5837    1.0552 C   0  0  0  0  0  0  0  0  0  0  0  0
    4.4606    1.3745    0.9639 C   0  0  0  0  0  0  0  0  0  0  0  0
    2.9306    1.3758    0.9996 C   0  0  3  0  0  0  0  0  0  0  0  0
    2.3617    1.5927    2.4531 C   0  0  0  0  0  0  0  0  0  0  0  0
    1.2495    2.0910    2.6250 O   0  0  0  0  0  0  0  0  0  0  0  0
    3.1909    1.1494    3.4766 N   0  0  0  0  0  0  0  0  0  0  0  0
    3.0428    1.3205    4.8760 C   0  0  0  0  0  0  0  0  0  0  0  0
    1.9816    2.0256    5.4447 C   0  0  0  0  0  0  0  0  0  0  0  0
    1.8818    2.3305    6.7601 N   0  0  0  0  0  0  0  0  0  0  0  0
    2.8716    1.8832    7.5588 C   0  0  0  0  0  0  0  0  0  0  0  0
    3.9407    1.0930    7.1325 C   0  0  0  0  0  0  0  0  0  0  0  0
    4.8816    0.5965    8.0539 C   0  0  0  0  0  0  0  0  0  0  0  0
    5.9335   -0.2111    7.6317 C   0  0  0  0  0  0  0  0  0  0  0  0
    6.0695   -0.5091    6.2833 C   0  0  0  0  0  0  0  0  0  0  0  0
    5.1462   -0.0079    5.3594 C   0  0  0  0  0  0  0  0  0  0  0  0
    4.0445    0.8012    5.7536 C   0  0  0  0  0  0  0  0  0  0  0  0
    0.6516   -0.7159   -0.4163 H   0  0  0  0  0  0  0  0  0  0  0  0
    0.6178    1.0333   -0.3350 H   0  0  0  0  0  0  0  0  0  0  0  0
    0.4222    0.0707    1.1526 H   0  0  0  0  0  0  0  0  0  0  0  0
    2.4615   -1.9594    0.5454 H   0  0  0  0  0  0  0  0  0  0  0  0
    2.6971   -1.0904    2.0508 H   0  0  0  0  0  0  0  0  0  0  0  0
    4.6172   -1.4904   -0.2852 H   0  0  0  0  0  0  0  0  0  0  0  0
    4.8569   -1.9126    1.4200 H   0  0  0  0  0  0  0  0  0  0  0  0
    7.1297   -0.7694    0.9441 H   0  0  0  0  0  0  0  0  0  0  0  0
    8.3497    1.3671    1.1268 H   0  0  0  0  0  0  0  0  0  0  0  0
    4.6356    3.5319    1.0882 H   0  0  0  0  0  0  0  0  0  0  0  0
    2.6046    2.2402    0.4039 H   0  0  0  0  0  0  0  0  0  0  0  0
    4.0601    0.7319    3.1834 H   0  0  0  0  0  0  0  0  0  0  0  0
    1.1483    2.3954    4.8594 H   0  0  0  0  0  0  0  0  0  0  0  0
    2.7748    2.1835    8.5990 H   0  0  0  0  0  0  0  0  0  0  0  0
    4.7868    0.8207    9.1147 H   0  0  0  0  0  0  0  0  0  0  0  0
    6.6389   -0.6126    8.3550 H   0  0  0  0  0  0  0  0  0  0  0  0
    6.8885   -1.1400    5.9468 H   0  0  0  0  0  0  0  0  0  0  0  0
    5.2994   -0.2906    4.3217 H   0  0  0  0  0  0  0  0  0  0  0  0
  1  2  1  0  0  0  0
  1 26  1  0  0  0  0
  1 27  1  0  0  0  0
  1 28  1  0  0  0  0
  2  3  1  0  0  0  0
  2 12  1  0  0  0  0
  3  4  1  0  0  0  0
  3 29  1  0  0  0  0
  3 30  1  0  0  0  0
  4  5  1  0  0  0  0
  4 31  1  0  0  0  0
  4 32  1  0  0  0  0
  5  6  1  0  0  0  0
  5 11  2  0  0  0  0
  6  7  2  0  0  0  0
  6 33  1  0  0  0  0
  7  8  1  0  0  0  0
  7 34  1  0  0  0  0
  8  9  1  0  0  0  0
  8 10  2  0  0  0  0
 10 11  1  0  0  0  0
 10 35  1  0  0  0  0
 11 12  1  0  0  0  0
 12 13  1  0  0  0  0
 12 36  1  0  0  0  0
 13 14  2  0  0  0  0
 13 15  1  0  0  0  0
 15 16  1  0  0  0  0
 15 37  1  0  0  0  0
 16 17  1  0  0  0  0
 16 25  2  0  0  0  0
 17 18  2  0  0  0  0
 17 38  1  0  0  0  0
 18 19  1  0  0  0  0
 19 20  2  0  0  0  0
 19 39  1  0  0  0  0
 20 21  1  0  0  0  0
 20 25  1  0  0  0  0
 21 22  2  0  0  0  0
 21 40  1  0  0  0  0
 22 23  1  0  0  0  0
 22 41  1  0  0  0  0
 23 24  2  0  0  0  0
 23 42  1  0  0  0  0
 24 25  1  0  0  0  0
 24 43  1  0  0  0  0
M  END
$$$$
