
 OpenBabel07202414183D

 49 53  0  0  0  0  0  0  0  0999 V2000
    6.5436   -5.9189   -0.9999 F   0  0  0  0  0  0  0  0  0  0  0  0
    5.5839   -5.9266   -0.0469 C   0  0  0  0  0  0  0  0  0  0  0  0
    4.4970   -6.5558   -0.5559 F   0  0  0  0  0  0  0  0  0  0  0  0
    6.0542   -6.6611    1.0750 O   0  0  0  0  0  0  0  0  0  0  0  0
    5.9524   -5.7336    2.0480 C   0  0  0  0  0  0  0  0  0  0  0  0
    5.4704   -4.5357    1.5695 C   0  0  0  0  0  0  0  0  0  0  0  0
    5.2223   -4.5663    0.2486 O   0  0  0  0  0  0  0  0  0  0  0  0
    5.2926   -3.4468    2.4090 C   0  0  0  0  0  0  0  0  0  0  0  0
    5.5897   -3.5768    3.7729 C   0  0  0  0  0  0  0  0  0  0  0  0
    5.4498   -2.4677    4.6342 N   0  0  0  0  0  0  0  0  0  0  0  0
    6.2607   -2.0062    5.6982 C   0  0  0  0  0  0  0  0  0  0  0  0
    5.7049   -1.2291    6.7253 C   0  0  0  0  0  0  0  0  0  0  0  0
    6.4657   -0.8070    7.8330 C   0  0  0  0  0  0  0  0  0  0  0  0
    5.8428   -0.0513    8.9861 C   0  0  0  0  0  0  0  0  0  0  0  0
    5.2139    1.2874    8.6147 C   0  0  0  0  0  0  0  0  0  0  0  0
    3.9970    1.4451    8.6482 O   0  0  0  0  0  0  0  0  0  0  0  0
    6.1316    2.2671    8.2896 N   0  0  0  0  0  0  0  0  0  0  0  0
    5.8776    3.3286    7.3830 C   0  0  0  0  0  0  0  0  0  0  0  0
    4.8323    3.2427    6.4700 C   0  0  0  0  0  0  0  0  0  0  0  0
    4.9160    3.7288    5.2147 N   0  0  0  0  0  0  0  0  0  0  0  0
    6.0374    4.4260    4.9180 C   0  0  0  0  0  0  0  0  0  0  0  0
    6.9876    4.8266    5.8569 C   0  0  0  0  0  0  0  0  0  0  0  0
    8.0040    5.7451    5.5445 C   0  0  0  0  0  0  0  0  0  0  0  0
    8.8670    6.2070    6.5372 C   0  0  0  0  0  0  0  0  0  0  0  0
    8.7567    5.7228    7.8360 C   0  0  0  0  0  0  0  0  0  0  0  0
    7.7988    4.7452    8.1321 C   0  0  0  0  0  0  0  0  0  0  0  0
    6.8908    4.2853    7.1508 C   0  0  0  0  0  0  0  0  0  0  0  0
    7.8163   -1.1830    7.8954 C   0  0  0  0  0  0  0  0  0  0  0  0
    8.3757   -1.9594    6.8835 C   0  0  0  0  0  0  0  0  0  0  0  0
   10.0384   -2.4193    6.9908 Cl  0  0  0  0  0  0  0  0  0  0  0  0
    7.6106   -2.3800    5.7975 C   0  0  0  0  0  0  0  0  0  0  0  0
    6.1091   -4.8011    4.2358 C   0  0  0  0  0  0  0  0  0  0  0  0
    6.2763   -5.9000    3.3700 C   0  0  0  0  0  0  0  0  0  0  0  0
    4.9101   -2.5033    2.0010 H   0  0  0  0  0  0  0  0  0  0  0  0
    4.7035   -1.8259    4.3802 H   0  0  0  0  0  0  0  0  0  0  0  0
    4.6467   -0.9712    6.6734 H   0  0  0  0  0  0  0  0  0  0  0  0
    6.5844    0.1385    9.7741 H   0  0  0  0  0  0  0  0  0  0  0  0
    5.0702   -0.6817    9.4402 H   0  0  0  0  0  0  0  0  0  0  0  0
    7.1168    2.0271    8.3524 H   0  0  0  0  0  0  0  0  0  0  0  0
    3.9261    2.6749    6.6675 H   0  0  0  0  0  0  0  0  0  0  0  0
    6.1386    4.6779    3.8646 H   0  0  0  0  0  0  0  0  0  0  0  0
    8.0931    6.1445    4.5356 H   0  0  0  0  0  0  0  0  0  0  0  0
    9.6108    6.9701    6.2977 H   0  0  0  0  0  0  0  0  0  0  0  0
    9.4043    6.1137    8.6159 H   0  0  0  0  0  0  0  0  0  0  0  0
    7.7090    4.4095    9.1666 H   0  0  0  0  0  0  0  0  0  0  0  0
    8.4271   -0.8929    8.7468 H   0  0  0  0  0  0  0  0  0  0  0  0
    8.0798   -2.9749    5.0209 H   0  0  0  0  0  0  0  0  0  0  0  0
    6.3323   -4.9365    5.2893 H   0  0  0  0  0  0  0  0  0  0  0  0
    6.6541   -6.8489    3.7425 H   0  0  0  0  0  0  0  0  0  0  0  0
  1  2  1  0  0  0  0
  2  3  1  0  0  0  0
  2  4  1  0  0  0  0
  2  7  1  0  0  0  0
  4  5  1  0  0  0  0
  5  6  2  0  0  0  0
  5 33  1  0  0  0  0
  6  7  1  0  0  0  0
  6  8  1  0  0  0  0
  8  9  2  0  0  0  0
  8 34  1  0  0  0  0
  9 10  1  0  0  0  0
  9 32  1  0  0  0  0
 10 11  1  0  0  0  0
 10 35  1  0  0  0  0
 11 12  2  0  0  0  0
 11 31  1  0  0  0  0
 12 13  1  0  0  0  0
 12 36  1  0  0  0  0
 13 14  1  0  0  0  0
 13 28  2  0  0  0  0
 14 15  1  0  0  0  0
 14 37  1  0  0  0  0
 14 38  1  0  0  0  0
 15 16  2  0  0  0  0
 15 17  1  0  0  0  0
 17 18  1  0  0  0  0
 17 39  1  0  0  0  0
 18 19  2  0  0  0  0
 18 27  1  0  0  0  0
 19 20  1  0  0  0  0
 19 40  1  0  0  0  0
 20 21  2  0  0  0  0
 21 22  1  0  0  0  0
 21 41  1  0  0  0  0
 22 23  2  0  0  0  0
 22 27  1  0  0  0  0
 23 24  1  0  0  0  0
 23 42  1  0  0  0  0
 24 25  2  0  0  0  0
 24 43  1  0  0  0  0
 25 26  1  0  0  0  0
 25 44  1  0  0  0  0
 26 27  2  0  0  0  0
 26 45  1  0  0  0  0
 28 29  1  0  0  0  0
 28 46  1  0  0  0  0
 29 30  1  0  0  0  0
 29 31  2  0  0  0  0
 31 47  1  0  0  0  0
 32 33  2  0  0  0  0
 32 48  1  0  0  0  0
 33 49  1  0  0  0  0
M  END
$$$$
