
 OpenBabel07202414133D

 55 58  0  0  1  0  0  0  0  0999 V2000
    3.1680   -2.6246   -0.0842 C   0  0  0  0  0  0  0  0  0  0  0  0
    2.7637   -2.6815   -1.5076 N   0  0  0  0  0  0  0  0  0  0  0  0
    1.4051   -3.2521   -1.6577 C   0  0  0  0  0  0  0  0  0  0  0  0
    2.9924   -1.2458   -2.3776 S   0  0  0  0  0  0  0  0  0  0  0  0
    2.5285   -1.4564   -3.7277 O   0  0  0  0  0  0  0  0  0  0  0  0
    2.5821   -0.1229   -1.5760 O   0  0  0  0  0  0  0  0  0  0  0  0
    4.6738   -1.3026   -2.4737 N   0  0  0  0  0  0  0  0  0  0  0  0
    5.3082   -0.1538   -3.1927 C   0  0  0  0  0  0  0  0  0  0  0  0
    6.8824   -0.1895   -3.1995 C   0  0  3  0  0  0  0  0  0  0  0  0
    7.2705    1.0569   -4.1086 C   0  0  0  0  0  0  0  0  0  0  0  0
    6.8692    2.1826   -3.8192 O   0  0  0  0  0  0  0  0  0  0  0  0
    8.0121    0.8028   -5.2598 N   0  0  0  0  0  0  0  0  0  0  0  0
    8.3281    1.6986   -6.3203 C   0  0  0  0  0  0  0  0  0  0  0  0
    7.9179    3.0290   -6.3504 C   0  0  0  0  0  0  0  0  0  0  0  0
    8.0183    3.8413   -7.4306 N   0  0  0  0  0  0  0  0  0  0  0  0
    8.6165    3.3240   -8.5216 C   0  0  0  0  0  0  0  0  0  0  0  0
    9.2067    2.0634   -8.5746 C   0  0  0  0  0  0  0  0  0  0  0  0
    9.9454    1.6627   -9.7026 C   0  0  0  0  0  0  0  0  0  0  0  0
   10.5690    0.4183   -9.7427 C   0  0  0  0  0  0  0  0  0  0  0  0
   10.4269   -0.4512   -8.6681 C   0  0  0  0  0  0  0  0  0  0  0  0
    9.6826   -0.0600   -7.5459 C   0  0  0  0  0  0  0  0  0  0  0  0
    9.0613    1.2105   -7.4547 C   0  0  0  0  0  0  0  0  0  0  0  0
    7.4291   -1.5085   -3.7972 C   0  0  0  0  0  0  0  0  0  0  0  0
    7.4192   -2.6802   -2.8363 C   0  0  0  0  0  0  0  0  0  0  0  0
    8.1648   -2.4133   -1.6619 O   0  0  0  0  0  0  0  0  0  0  0  0
    7.9606   -1.1847   -1.0989 C   0  0  0  0  0  0  0  0  0  0  0  0
    8.3895   -1.1047    0.2315 C   0  0  0  0  0  0  0  0  0  0  0  0
    8.3145    0.0961    0.9275 C   0  0  0  0  0  0  0  0  0  0  0  0
    7.8195    1.2211    0.2820 C   0  0  0  0  0  0  0  0  0  0  0  0
    7.7637    2.7216    1.1239 Cl  0  0  0  0  0  0  0  0  0  0  0  0
    7.3692    1.1435   -1.0414 C   0  0  0  0  0  0  0  0  0  0  0  0
    7.4266   -0.0662   -1.7651 C   0  0  0  0  0  0  0  0  0  0  0  0
    3.0353   -3.6095    0.3786 H   0  0  0  0  0  0  0  0  0  0  0  0
    2.5605   -1.9060    0.4731 H   0  0  0  0  0  0  0  0  0  0  0  0
    4.2281   -2.3707    0.0118 H   0  0  0  0  0  0  0  0  0  0  0  0
    1.3230   -4.1870   -1.0916 H   0  0  0  0  0  0  0  0  0  0  0  0
    1.2092   -3.5009   -2.7049 H   0  0  0  0  0  0  0  0  0  0  0  0
    0.6431   -2.5582   -1.2919 H   0  0  0  0  0  0  0  0  0  0  0  0
    4.8176   -2.1726   -2.9802 H   0  0  0  0  0  0  0  0  0  0  0  0
    4.9545    0.7803   -2.7384 H   0  0  0  0  0  0  0  0  0  0  0  0
    4.9546   -0.1747   -4.2318 H   0  0  0  0  0  0  0  0  0  0  0  0
    8.2699   -0.1467   -5.4555 H   0  0  0  0  0  0  0  0  0  0  0  0
    7.4667    3.5230   -5.4956 H   0  0  0  0  0  0  0  0  0  0  0  0
    8.6216    3.9865   -9.3839 H   0  0  0  0  0  0  0  0  0  0  0  0
   10.0728    2.3388  -10.5489 H   0  0  0  0  0  0  0  0  0  0  0  0
   11.1719    0.1359  -10.6001 H   0  0  0  0  0  0  0  0  0  0  0  0
   10.9138   -1.4208   -8.6902 H   0  0  0  0  0  0  0  0  0  0  0  0
    9.6507   -0.7730   -6.7242 H   0  0  0  0  0  0  0  0  0  0  0  0
    8.4919   -1.3729   -4.0438 H   0  0  0  0  0  0  0  0  0  0  0  0
    6.9047   -1.7660   -4.7244 H   0  0  0  0  0  0  0  0  0  0  0  0
    7.8984   -3.5335   -3.3304 H   0  0  0  0  0  0  0  0  0  0  0  0
    6.4308   -3.0363   -2.5515 H   0  0  0  0  0  0  0  0  0  0  0  0
    8.7802   -1.9916    0.7252 H   0  0  0  0  0  0  0  0  0  0  0  0
    8.6462    0.1457    1.9604 H   0  0  0  0  0  0  0  0  0  0  0  0
    6.9707    2.0502   -1.4915 H   0  0  0  0  0  0  0  0  0  0  0  0
  1  2  1  0  0  0  0
  1 33  1  0  0  0  0
  1 34  1  0  0  0  0
  1 35  1  0  0  0  0
  2  3  1  0  0  0  0
  2  4  1  0  0  0  0
  3 36  1  0  0  0  0
  3 37  1  0  0  0  0
  3 38  1  0  0  0  0
  4  5  2  0  0  0  0
  4  6  2  0  0  0  0
  4  7  1  0  0  0  0
  7  8  1  0  0  0  0
  7 39  1  0  0  0  0
  8  9  1  0  0  0  0
  8 40  1  0  0  0  0
  8 41  1  0  0  0  0
  9 10  1  0  0  0  0
  9 23  1  0  0  0  0
  9 32  1  0  0  0  0
 10 11  2  0  0  0  0
 10 12  1  0  0  0  0
 12 13  1  0  0  0  0
 12 42  1  0  0  0  0
 13 14  1  0  0  0  0
 13 22  2  0  0  0  0
 14 15  2  0  0  0  0
 14 43  1  0  0  0  0
 15 16  1  0  0  0  0
 16 17  2  0  0  0  0
 16 44  1  0  0  0  0
 17 18  1  0  0  0  0
 17 22  1  0  0  0  0
 18 19  2  0  0  0  0
 18 45  1  0  0  0  0
 19 20  1  0  0  0  0
 19 46  1  0  0  0  0
 20 21  2  0  0  0  0
 20 47  1  0  0  0  0
 21 22  1  0  0  0  0
 21 48  1  0  0  0  0
 23 24  1  0  0  0  0
 23 49  1  0  0  0  0
 23 50  1  0  0  0  0
 24 25  1  0  0  0  0
 24 51  1  0  0  0  0
 24 52  1  0  0  0  0
 25 26  1  0  0  0  0
 26 27  1  0  0  0  0
 26 32  2  0  0  0  0
 27 28  2  0  0  0  0
 27 53  1  0  0  0  0
 28 29  1  0  0  0  0
 28 54  1  0  0  0  0
 29 30  1  0  0  0  0
 29 31  2  0  0  0  0
 31 32  1  0  0  0  0
 31 55  1  0  0  0  0
M  END
$$$$
