
 OpenBabel07202414173D

 30 31  0  0  0  0  0  0  0  0999 V2000
    3.8255   -0.3435    1.5495 Cl  0  0  0  0  0  0  0  0  0  0  0  0
    2.9546    0.0313    0.0444 C   0  0  0  0  0  0  0  0  0  0  0  0
    3.2927   -0.9372   -1.0754 C   0  0  0  0  0  0  0  0  0  0  0  0
    2.4782   -1.1245   -1.9776 O   0  0  0  0  0  0  0  0  0  0  0  0
    4.5576   -1.4959   -0.9996 N   0  0  0  0  0  0  0  0  0  0  0  0
    5.1561   -2.3739   -1.9276 C   0  0  0  0  0  0  0  0  0  0  0  0
    4.6539   -2.5825   -3.2111 C   0  0  0  0  0  0  0  0  0  0  0  0
    5.2813   -3.4792   -4.0663 C   0  0  0  0  0  0  0  0  0  0  0  0
    6.4144   -4.1779   -3.6487 C   0  0  0  0  0  0  0  0  0  0  0  0
    6.9531   -3.9886   -2.3711 C   0  0  0  0  0  0  0  0  0  0  0  0
    8.1048   -4.7050   -1.9402 N   0  0  0  0  0  0  0  0  0  0  0  0
    8.7300   -4.4868   -0.6571 C   0  0  0  0  0  0  0  0  0  0  0  0
   10.0848   -5.1508   -0.7813 C   0  0  0  0  0  0  0  0  0  0  0  0
    9.8344   -6.2947   -1.7425 C   0  0  0  0  0  0  0  0  0  0  0  0
    8.7046   -5.7875   -2.6063 C   0  0  0  0  0  0  0  0  0  0  0  0
    8.3945   -6.3238   -3.6584 O   0  0  0  0  0  0  0  0  0  0  0  0
    6.3133   -3.0635   -1.5248 C   0  0  0  0  0  0  0  0  0  0  0  0
    3.2157    1.0452   -0.2695 H   0  0  0  0  0  0  0  0  0  0  0  0
    1.8838   -0.0285    0.2573 H   0  0  0  0  0  0  0  0  0  0  0  0
    5.0467   -1.3543   -0.1210 H   0  0  0  0  0  0  0  0  0  0  0  0
    3.7846   -2.0501   -3.5816 H   0  0  0  0  0  0  0  0  0  0  0  0
    4.8862   -3.6410   -5.0671 H   0  0  0  0  0  0  0  0  0  0  0  0
    6.8603   -4.8622   -4.3630 H   0  0  0  0  0  0  0  0  0  0  0  0
    8.1210   -4.9680    0.1164 H   0  0  0  0  0  0  0  0  0  0  0  0
    8.8475   -3.4214   -0.4372 H   0  0  0  0  0  0  0  0  0  0  0  0
   10.4856   -5.4823    0.1805 H   0  0  0  0  0  0  0  0  0  0  0  0
   10.8044   -4.4506   -1.2229 H   0  0  0  0  0  0  0  0  0  0  0  0
    9.5040   -7.1985   -1.2218 H   0  0  0  0  0  0  0  0  0  0  0  0
   10.7170   -6.5103   -2.3503 H   0  0  0  0  0  0  0  0  0  0  0  0
    6.6865   -2.8950   -0.5199 H   0  0  0  0  0  0  0  0  0  0  0  0
  1  2  1  0  0  0  0
  2  3  1  0  0  0  0
  2 18  1  0  0  0  0
  2 19  1  0  0  0  0
  3  4  2  0  0  0  0
  3  5  1  0  0  0  0
  5  6  1  0  0  0  0
  5 20  1  0  0  0  0
  6  7  1  0  0  0  0
  6 17  2  0  0  0  0
  7  8  2  0  0  0  0
  7 21  1  0  0  0  0
  8  9  1  0  0  0  0
  8 22  1  0  0  0  0
  9 10  2  0  0  0  0
  9 23  1  0  0  0  0
 10 11  1  0  0  0  0
 10 17  1  0  0  0  0
 11 12  1  0  0  0  0
 11 15  1  0  0  0  0
 12 13  1  0  0  0  0
 12 24  1  0  0  0  0
 12 25  1  0  0  0  0
 13 14  1  0  0  0  0
 13 26  1  0  0  0  0
 13 27  1  0  0  0  0
 14 15  1  0  0  0  0
 14 28  1  0  0  0  0
 14 29  1  0  0  0  0
 15 16  2  0  0  0  0
 17 30  1  0  0  0  0
M  END
$$$$
