
 OpenBabel07202414153D

 32 33  0  0  0  0  0  0  0  0999 V2000
    1.3261   -0.5873   -0.4007 C   0  0  0  0  0  0  0  0  0  0  0  0
    2.9146    0.0390    0.0792 S   0  0  0  0  0  0  0  0  0  0  0  0
    2.7267    0.9226    1.2145 O   0  0  0  0  0  0  0  0  0  0  0  0
    3.8337   -1.0815    0.1542 O   0  0  0  0  0  0  0  0  0  0  0  0
    3.4001    1.0398   -1.3050 C   0  0  0  0  0  0  0  0  0  0  0  0
    3.0665    2.3927   -1.3376 C   0  0  0  0  0  0  0  0  0  0  0  0
    3.4661    3.1778   -2.4286 C   0  0  0  0  0  0  0  0  0  0  0  0
    4.1967    2.6372   -3.4966 C   0  0  0  0  0  0  0  0  0  0  0  0
    4.5387    1.2761   -3.4126 C   0  0  0  0  0  0  0  0  0  0  0  0
    4.1533    0.4778   -2.3302 C   0  0  0  0  0  0  0  0  0  0  0  0
    4.5865    3.3875   -4.5901 N   0  0  0  0  0  0  0  0  0  0  0  0
    4.8644    4.8306   -4.5242 C   0  0  0  0  0  0  0  0  0  0  0  0
    3.9106    5.6311   -5.4392 C   0  0  0  0  0  0  0  0  0  0  0  0
    3.8565    5.1283   -6.8295 N   0  0  0  0  0  0  0  0  0  0  0  0
    3.4893    3.6972   -6.7937 C   0  0  0  0  0  0  0  0  0  0  0  0
    4.4515    2.8322   -5.9467 C   0  0  0  0  0  0  0  0  0  0  0  0
    0.9560   -1.2237    0.4063 H   0  0  0  0  0  0  0  0  0  0  0  0
    1.4335   -1.1742   -1.3149 H   0  0  0  0  0  0  0  0  0  0  0  0
    0.6433    0.2501   -0.5541 H   0  0  0  0  0  0  0  0  0  0  0  0
    2.5022    2.8494   -0.5277 H   0  0  0  0  0  0  0  0  0  0  0  0
    3.1660    4.2223   -2.4375 H   0  0  0  0  0  0  0  0  0  0  0  0
    5.1561    0.8243   -4.1858 H   0  0  0  0  0  0  0  0  0  0  0  0
    4.4598   -0.5655   -2.2983 H   0  0  0  0  0  0  0  0  0  0  0  0
    5.8955    4.9885   -4.8659 H   0  0  0  0  0  0  0  0  0  0  0  0
    4.8228    5.2288   -3.5047 H   0  0  0  0  0  0  0  0  0  0  0  0
    4.2337    6.6779   -5.4652 H   0  0  0  0  0  0  0  0  0  0  0  0
    2.8980    5.6239   -5.0183 H   0  0  0  0  0  0  0  0  0  0  0  0
    4.7942    5.1997   -7.2259 H   0  0  0  0  0  0  0  0  0  0  0  0
    3.4715    3.3143   -7.8199 H   0  0  0  0  0  0  0  0  0  0  0  0
    2.4676    3.6019   -6.4044 H   0  0  0  0  0  0  0  0  0  0  0  0
    5.4421    2.8099   -6.4175 H   0  0  0  0  0  0  0  0  0  0  0  0
    4.0681    1.8057   -5.9479 H   0  0  0  0  0  0  0  0  0  0  0  0
  1  2  1  0  0  0  0
  1 17  1  0  0  0  0
  1 18  1  0  0  0  0
  1 19  1  0  0  0  0
  2  3  2  0  0  0  0
  2  4  2  0  0  0  0
  2  5  1  0  0  0  0
  5  6  1  0  0  0  0
  5 10  2  0  0  0  0
  6  7  2  0  0  0  0
  6 20  1  0  0  0  0
  7  8  1  0  0  0  0
  7 21  1  0  0  0  0
  8  9  2  0  0  0  0
  8 11  1  0  0  0  0
  9 10  1  0  0  0  0
  9 22  1  0  0  0  0
 10 23  1  0  0  0  0
 11 12  1  0  0  0  0
 11 16  1  0  0  0  0
 12 13  1  0  0  0  0
 12 24  1  0  0  0  0
 12 25  1  0  0  0  0
 13 14  1  0  0  0  0
 13 26  1  0  0  0  0
 13 27  1  0  0  0  0
 14 15  1  0  0  0  0
 14 28  1  0  0  0  0
 15 16  1  0  0  0  0
 15 29  1  0  0  0  0
 15 30  1  0  0  0  0
 16 31  1  0  0  0  0
 16 32  1  0  0  0  0
M  END
$$$$
