
 OpenBabel07202414133D

 57 61  0  0  1  0  0  0  0  0999 V2000
    1.3119   -1.7601   -4.5935 C   0  0  0  0  0  0  0  0  0  0  0  0
    1.8684   -1.9956   -3.1998 C   0  0  0  0  0  0  0  0  0  0  0  0
    2.7215   -0.9088   -2.7743 N   0  0  0  0  0  0  0  0  0  0  0  0
    4.0588   -0.8582   -3.1209 C   0  0  0  0  0  0  0  0  0  0  0  0
    4.6114   -1.7704   -3.7324 O   0  0  0  0  0  0  0  0  0  0  0  0
    4.7489    0.4171   -2.6536 C   0  0  0  0  0  0  0  0  0  0  0  0
    6.1712    0.5343   -3.0347 N   0  0  0  0  0  0  0  0  0  0  0  0
    6.4898    0.4250   -4.4755 C   0  0  0  0  0  0  0  0  0  0  0  0
    6.1704    1.6762   -5.3178 C   0  0  3  0  0  0  0  0  0  0  0  0
    7.0091    1.5379   -6.6102 C   0  0  0  0  0  0  0  0  0  0  0  0
    6.0598    1.6280   -7.7845 C   0  0  0  0  0  0  0  0  0  0  0  0
    4.7331    1.8022   -7.2639 N   0  0  0  0  0  0  0  0  0  0  0  0
    3.7649    2.5425   -8.0411 C   0  0  0  0  0  0  0  0  0  0  0  0
    2.9226    3.4682   -7.4197 C   0  0  0  0  0  0  0  0  0  0  0  0
    2.3361    4.5140   -8.0490 N   0  0  0  0  0  0  0  0  0  0  0  0
    2.5097    4.5947   -9.3841 C   0  0  0  0  0  0  0  0  0  0  0  0
    3.1188    3.6060  -10.1484 C   0  0  0  0  0  0  0  0  0  0  0  0
    3.0733    3.6589  -11.5571 C   0  0  0  0  0  0  0  0  0  0  0  0
    3.6224    2.6368  -12.3236 C   0  0  0  0  0  0  0  0  0  0  0  0
    4.2434    1.5694  -11.6936 C   0  0  0  0  0  0  0  0  0  0  0  0
    4.3023    1.5195  -10.2964 C   0  0  0  0  0  0  0  0  0  0  0  0
    3.7572    2.5404   -9.4728 C   0  0  0  0  0  0  0  0  0  0  0  0
    4.7089    1.6945   -5.8587 C   0  0  0  0  0  0  0  0  0  0  0  0
    3.7036    1.7184   -5.1569 O   0  0  0  0  0  0  0  0  0  0  0  0
    6.4597    3.0187   -4.6119 C   0  0  0  0  0  0  0  0  0  0  0  0
    6.3666    4.2250   -5.3421 C   0  0  0  0  0  0  0  0  0  0  0  0
    6.6211    5.4634   -4.7471 C   0  0  0  0  0  0  0  0  0  0  0  0
    6.5568    6.8905   -5.7041 Cl  0  0  0  0  0  0  0  0  0  0  0  0
    6.9419    5.5466   -3.3984 C   0  0  0  0  0  0  0  0  0  0  0  0
    7.0340    4.3799   -2.6443 C   0  0  0  0  0  0  0  0  0  0  0  0
    6.8112    3.1333   -3.2507 C   0  0  0  0  0  0  0  0  0  0  0  0
    7.0755    1.7024   -2.2242 S   0  0  0  0  0  0  0  0  0  0  0  0
    8.4727    1.3811   -2.3748 O   0  0  0  0  0  0  0  0  0  0  0  0
    6.4702    1.9575   -0.9415 O   0  0  0  0  0  0  0  0  0  0  0  0
    0.6750   -2.5989   -4.8918 H   0  0  0  0  0  0  0  0  0  0  0  0
    2.1135   -1.6587   -5.3325 H   0  0  0  0  0  0  0  0  0  0  0  0
    0.7126   -0.8450   -4.6254 H   0  0  0  0  0  0  0  0  0  0  0  0
    2.4353   -2.9312   -3.1768 H   0  0  0  0  0  0  0  0  0  0  0  0
    1.0544   -2.0681   -2.4743 H   0  0  0  0  0  0  0  0  0  0  0  0
    2.2977   -0.1080   -2.3227 H   0  0  0  0  0  0  0  0  0  0  0  0
    4.6713    0.4025   -1.5610 H   0  0  0  0  0  0  0  0  0  0  0  0
    4.1946    1.2886   -2.9991 H   0  0  0  0  0  0  0  0  0  0  0  0
    6.0458   -0.4642   -4.9270 H   0  0  0  0  0  0  0  0  0  0  0  0
    7.5718    0.2285   -4.5171 H   0  0  0  0  0  0  0  0  0  0  0  0
    7.5188    0.5672   -6.6709 H   0  0  0  0  0  0  0  0  0  0  0  0
    7.8090    2.2837   -6.6912 H   0  0  0  0  0  0  0  0  0  0  0  0
    6.1018    0.6883   -8.3401 H   0  0  0  0  0  0  0  0  0  0  0  0
    6.3423    2.4606   -8.4336 H   0  0  0  0  0  0  0  0  0  0  0  0
    2.7294    3.4605   -6.3524 H   0  0  0  0  0  0  0  0  0  0  0  0
    2.1082    5.4977   -9.8370 H   0  0  0  0  0  0  0  0  0  0  0  0
    2.5635    4.4769  -12.0634 H   0  0  0  0  0  0  0  0  0  0  0  0
    3.5390    2.6585  -13.4076 H   0  0  0  0  0  0  0  0  0  0  0  0
    4.6599    0.7554  -12.2825 H   0  0  0  0  0  0  0  0  0  0  0  0
    4.7251    0.6225   -9.8569 H   0  0  0  0  0  0  0  0  0  0  0  0
    6.1000    4.2149   -6.3979 H   0  0  0  0  0  0  0  0  0  0  0  0
    7.1348    6.5103   -2.9329 H   0  0  0  0  0  0  0  0  0  0  0  0
    7.3057    4.4425   -1.5909 H   0  0  0  0  0  0  0  0  0  0  0  0
  1  2  1  0  0  0  0
  1 35  1  0  0  0  0
  1 36  1  0  0  0  0
  1 37  1  0  0  0  0
  2  3  1  0  0  0  0
  2 38  1  0  0  0  0
  2 39  1  0  0  0  0
  3  4  1  0  0  0  0
  3 40  1  0  0  0  0
  4  5  2  0  0  0  0
  4  6  1  0  0  0  0
  6  7  1  0  0  0  0
  6 41  1  0  0  0  0
  6 42  1  0  0  0  0
  7  8  1  0  0  0  0
  7 32  1  0  0  0  0
  8  9  1  0  0  0  0
  8 43  1  0  0  0  0
  8 44  1  0  0  0  0
  9 10  1  0  0  0  0
  9 23  1  0  0  0  0
  9 25  1  0  0  0  0
 10 11  1  0  0  0  0
 10 45  1  0  0  0  0
 10 46  1  0  0  0  0
 11 12  1  0  0  0  0
 11 47  1  0  0  0  0
 11 48  1  0  0  0  0
 12 13  1  0  0  0  0
 12 23  1  0  0  0  0
 13 14  1  0  0  0  0
 13 22  2  0  0  0  0
 14 15  2  0  0  0  0
 14 49  1  0  0  0  0
 15 16  1  0  0  0  0
 16 17  2  0  0  0  0
 16 50  1  0  0  0  0
 17 18  1  0  0  0  0
 17 22  1  0  0  0  0
 18 19  2  0  0  0  0
 18 51  1  0  0  0  0
 19 20  1  0  0  0  0
 19 52  1  0  0  0  0
 20 21  2  0  0  0  0
 20 53  1  0  0  0  0
 21 22  1  0  0  0  0
 21 54  1  0  0  0  0
 23 24  2  0  0  0  0
 25 26  1  0  0  0  0
 25 31  2  0  0  0  0
 26 27  2  0  0  0  0
 26 55  1  0  0  0  0
 27 28  1  0  0  0  0
 27 29  1  0  0  0  0
 29 30  2  0  0  0  0
 29 56  1  0  0  0  0
 30 31  1  0  0  0  0
 30 57  1  0  0  0  0
 31 32  1  0  0  0  0
 32 33  2  0  0  0  0
 32 34  2  0  0  0  0
M  END
$$$$
