
 OpenBabel07202414183D

 46 49  0  0  0  0  0  0  0  0999 V2000
    8.1722    4.9767    1.4599 F   0  0  0  0  0  0  0  0  0  0  0  0
    7.7557    3.7926    0.9898 C   0  0  0  0  0  0  0  0  0  0  0  0
    6.4875    3.3367    1.3224 C   0  0  0  0  0  0  0  0  0  0  0  0
    6.0535    2.1052    0.8270 C   0  0  0  0  0  0  0  0  0  0  0  0
    4.1393    1.4515    1.3945 I   0  0  0  0  0  0  0  0  0  0  0  0
    6.8805    1.3228   -0.0018 C   0  0  0  0  0  0  0  0  0  0  0  0
    6.4716    0.0778   -0.5166 N   0  0  0  0  0  0  0  0  0  0  0  0
    7.2147   -1.1033   -0.6967 C   0  0  0  0  0  0  0  0  0  0  0  0
    6.8211   -2.0018   -1.6811 C   0  0  0  0  0  0  0  0  0  0  0  0
    7.5468   -3.1822   -1.8799 C   0  0  0  0  0  0  0  0  0  0  0  0
    7.0463   -4.2937   -3.0875 Cl  0  0  0  0  0  0  0  0  0  0  0  0
    8.6468   -3.4796   -1.0764 C   0  0  0  0  0  0  0  0  0  0  0  0
    9.0597   -2.6091   -0.0714 C   0  0  0  0  0  0  0  0  0  0  0  0
   10.1610   -2.9989    0.8917 C   0  0  0  0  0  0  0  0  0  0  0  0
   11.3547   -2.0626    0.9513 C   0  0  0  0  0  0  0  0  0  0  0  0
   11.6047   -1.4010    1.9549 O   0  0  0  0  0  0  0  0  0  0  0  0
   12.1503   -2.1124   -0.1761 N   0  0  0  0  0  0  0  0  0  0  0  0
   13.0755   -1.1015   -0.5529 C   0  0  0  0  0  0  0  0  0  0  0  0
   12.7579    0.2161   -0.2462 C   0  0  0  0  0  0  0  0  0  0  0  0
   12.7148    1.1695   -1.1960 N   0  0  0  0  0  0  0  0  0  0  0  0
   13.2080    0.8291   -2.4089 C   0  0  0  0  0  0  0  0  0  0  0  0
   13.9257   -0.3399   -2.6663 C   0  0  0  0  0  0  0  0  0  0  0  0
   14.6825   -0.5183   -3.8384 C   0  0  0  0  0  0  0  0  0  0  0  0
   15.4332   -1.6854   -4.0241 C   0  0  0  0  0  0  0  0  0  0  0  0
   15.3787   -2.6941   -3.0752 C   0  0  0  0  0  0  0  0  0  0  0  0
   14.5822   -2.5520   -1.9332 C   0  0  0  0  0  0  0  0  0  0  0  0
   13.8644   -1.3411   -1.7016 C   0  0  0  0  0  0  0  0  0  0  0  0
    8.3378   -1.4067    0.1029 C   0  0  0  0  0  0  0  0  0  0  0  0
    8.1613    1.8195   -0.3139 C   0  0  0  0  0  0  0  0  0  0  0  0
    8.5976    3.0477    0.1800 C   0  0  0  0  0  0  0  0  0  0  0  0
    5.8627    3.9492    1.9643 H   0  0  0  0  0  0  0  0  0  0  0  0
    5.4739   -0.1028   -0.3727 H   0  0  0  0  0  0  0  0  0  0  0  0
    5.9562   -1.7898   -2.3086 H   0  0  0  0  0  0  0  0  0  0  0  0
    9.1668   -4.4329   -1.2224 H   0  0  0  0  0  0  0  0  0  0  0  0
   10.5350   -4.0003    0.6457 H   0  0  0  0  0  0  0  0  0  0  0  0
    9.7291   -3.0710    1.8987 H   0  0  0  0  0  0  0  0  0  0  0  0
   11.7338   -2.5505   -0.9939 H   0  0  0  0  0  0  0  0  0  0  0  0
   12.3779    0.5119    0.7241 H   0  0  0  0  0  0  0  0  0  0  0  0
   12.9959    1.5478   -3.1991 H   0  0  0  0  0  0  0  0  0  0  0  0
   14.7329    0.2718   -4.5810 H   0  0  0  0  0  0  0  0  0  0  0  0
   16.0732   -1.7810   -4.9027 H   0  0  0  0  0  0  0  0  0  0  0  0
   15.9769   -3.6003   -3.2086 H   0  0  0  0  0  0  0  0  0  0  0  0
   14.5798   -3.3376   -1.1882 H   0  0  0  0  0  0  0  0  0  0  0  0
    8.6187   -0.7262    0.9053 H   0  0  0  0  0  0  0  0  0  0  0  0
    8.8233    1.2538   -0.9661 H   0  0  0  0  0  0  0  0  0  0  0  0
    9.5872    3.4216   -0.0707 H   0  0  0  0  0  0  0  0  0  0  0  0
  1  2  1  0  0  0  0
  2  3  2  0  0  0  0
  2 30  1  0  0  0  0
  3  4  1  0  0  0  0
  3 31  1  0  0  0  0
  4  5  1  0  0  0  0
  4  6  2  0  0  0  0
  6  7  1  0  0  0  0
  6 29  1  0  0  0  0
  7  8  1  0  0  0  0
  7 32  1  0  0  0  0
  8  9  2  0  0  0  0
  8 28  1  0  0  0  0
  9 10  1  0  0  0  0
  9 33  1  0  0  0  0
 10 11  1  0  0  0  0
 10 12  2  0  0  0  0
 12 13  1  0  0  0  0
 12 34  1  0  0  0  0
 13 14  1  0  0  0  0
 13 28  2  0  0  0  0
 14 15  1  0  0  0  0
 14 35  1  0  0  0  0
 14 36  1  0  0  0  0
 15 16  2  0  0  0  0
 15 17  1  0  0  0  0
 17 18  1  0  0  0  0
 17 37  1  0  0  0  0
 18 19  2  0  0  0  0
 18 27  1  0  0  0  0
 19 20  1  0  0  0  0
 19 38  1  0  0  0  0
 20 21  2  0  0  0  0
 21 22  1  0  0  0  0
 21 39  1  0  0  0  0
 22 23  2  0  0  0  0
 22 27  1  0  0  0  0
 23 24  1  0  0  0  0
 23 40  1  0  0  0  0
 24 25  2  0  0  0  0
 24 41  1  0  0  0  0
 25 26  1  0  0  0  0
 25 42  1  0  0  0  0
 26 27  2  0  0  0  0
 26 43  1  0  0  0  0
 28 44  1  0  0  0  0
 29 30  2  0  0  0  0
 29 45  1  0  0  0  0
 30 46  1  0  0  0  0
M  END
$$$$
