
 OpenBabel07202414183D

 68 72  0  0  1  0  0  0  0  0999 V2000
    1.7768   -0.3743    0.8507 F   0  0  0  0  0  0  0  0  0  0  0  0
    2.1654    0.4580    1.8531 C   0  0  0  0  0  0  0  0  0  0  0  0
    1.9413   -0.2274    3.0099 F   0  0  0  0  0  0  0  0  0  0  0  0
    3.6513    0.7594    1.7427 C   0  0  0  0  0  0  0  0  0  0  0  0
    4.0571    1.4713    0.5225 N   0  0  0  0  0  0  0  0  0  0  0  0
    3.9190    2.8541    0.4988 C   0  0  0  0  0  0  0  0  0  0  0  0
    3.3596    3.4828    1.3945 O   0  0  0  0  0  0  0  0  0  0  0  0
    4.3991    3.5390   -0.7633 C   0  0  0  0  0  0  0  0  0  0  0  0
    5.7399    2.9686   -1.1924 C   0  0  0  0  0  0  0  0  0  0  0  0
    5.6323    1.4752   -1.3319 C   0  0  0  0  0  0  0  0  0  0  0  0
    6.4366    0.7875   -2.2558 C   0  0  0  0  0  0  0  0  0  0  0  0
    6.2463   -0.5799   -2.4638 C   0  0  0  0  0  0  0  0  0  0  0  0
    6.9254   -1.2479   -3.5144 N   0  0  0  0  0  0  0  0  0  0  0  0
    8.4116   -1.3656   -3.4752 C   0  0  3  0  0  0  0  0  0  0  0  0
    9.1890   -0.2698   -4.2715 C   0  0  0  0  0  0  0  0  0  0  0  0
   10.3390    0.0725   -3.9881 O   0  0  0  0  0  0  0  0  0  0  0  0
    8.5900    0.2187   -5.4146 N   0  0  0  0  0  0  0  0  0  0  0  0
    9.3342    1.1768   -6.2175 C   0  0  0  0  0  0  0  0  0  0  0  0
    8.5271    1.6755   -7.4066 C   0  0  0  0  0  0  0  0  0  0  0  0
    9.2708    2.7139   -8.2063 C   0  0  0  0  0  0  0  0  0  0  0  0
   10.1023    2.3359   -9.2716 C   0  0  0  0  0  0  0  0  0  0  0  0
   10.7787    3.3013  -10.0229 C   0  0  0  0  0  0  0  0  0  0  0  0
   10.6355    4.6520   -9.7118 C   0  0  0  0  0  0  0  0  0  0  0  0
    9.8265    5.0255   -8.6459 C   0  0  0  0  0  0  0  0  0  0  0  0
    9.6895    6.3235   -8.3448 F   0  0  0  0  0  0  0  0  0  0  0  0
    9.1503    4.0734   -7.8894 C   0  0  0  0  0  0  0  0  0  0  0  0
    9.0342   -1.6115   -2.0983 C   0  0  0  0  0  0  0  0  0  0  0  0
    9.2370   -2.9104   -1.6144 C   0  0  0  0  0  0  0  0  0  0  0  0
    9.9883   -3.1105   -0.4559 C   0  0  0  0  0  0  0  0  0  0  0  0
   10.4928   -2.0032    0.2046 C   0  0  0  0  0  0  0  0  0  0  0  0
   10.2671   -0.7357   -0.1883 N   0  0  0  0  0  0  0  0  0  0  0  0
    9.5518   -0.5701   -1.3249 C   0  0  0  0  0  0  0  0  0  0  0  0
    6.2405   -1.8548   -4.5851 C   0  0  0  0  0  0  0  0  0  0  0  0
    6.8581   -2.5066   -5.4376 O   0  0  0  0  0  0  0  0  0  0  0  0
    4.7820   -1.6706   -4.7439 C   0  0  0  0  0  0  0  0  0  0  0  0
    3.9381   -2.5568   -5.3741 C   0  0  0  0  0  0  0  0  0  0  0  0
    2.6697   -2.0632   -5.3240 O   0  0  0  0  0  0  0  0  0  0  0  0
    2.8098   -0.8683   -4.6858 C   0  0  0  0  0  0  0  0  0  0  0  0
    4.0433   -0.5662   -4.3430 N   0  0  0  0  0  0  0  0  0  0  0  0
    5.2914   -1.2644   -1.7018 C   0  0  0  0  0  0  0  0  0  0  0  0
    4.5586   -0.5984   -0.7181 C   0  0  0  0  0  0  0  0  0  0  0  0
    4.7391    0.7700   -0.5093 C   0  0  0  0  0  0  0  0  0  0  0  0
    1.5341    1.3496    1.8418 H   0  0  0  0  0  0  0  0  0  0  0  0
    4.2354   -0.1613    1.8512 H   0  0  0  0  0  0  0  0  0  0  0  0
    3.9387    1.3763    2.6045 H   0  0  0  0  0  0  0  0  0  0  0  0
    4.4942    4.6132   -0.5758 H   0  0  0  0  0  0  0  0  0  0  0  0
    3.6349    3.3967   -1.5369 H   0  0  0  0  0  0  0  0  0  0  0  0
    6.5187    3.2038   -0.4580 H   0  0  0  0  0  0  0  0  0  0  0  0
    6.0236    3.4180   -2.1506 H   0  0  0  0  0  0  0  0  0  0  0  0
    7.1492    1.3421   -2.8596 H   0  0  0  0  0  0  0  0  0  0  0  0
    8.6627   -2.2722   -4.0468 H   0  0  0  0  0  0  0  0  0  0  0  0
    7.9592   -0.4189   -5.8912 H   0  0  0  0  0  0  0  0  0  0  0  0
   10.2664    0.6992   -6.5452 H   0  0  0  0  0  0  0  0  0  0  0  0
    9.6162    2.0110   -5.5612 H   0  0  0  0  0  0  0  0  0  0  0  0
    7.5722    2.0916   -7.0622 H   0  0  0  0  0  0  0  0  0  0  0  0
    8.2648    0.8303   -8.0552 H   0  0  0  0  0  0  0  0  0  0  0  0
   10.2244    1.2853   -9.5286 H   0  0  0  0  0  0  0  0  0  0  0  0
   11.4132    2.9990  -10.8522 H   0  0  0  0  0  0  0  0  0  0  0  0
   11.1481    5.4136  -10.2904 H   0  0  0  0  0  0  0  0  0  0  0  0
    8.5292    4.4056   -7.0627 H   0  0  0  0  0  0  0  0  0  0  0  0
    8.8666   -3.7745   -2.1605 H   0  0  0  0  0  0  0  0  0  0  0  0
   10.2031   -4.1083   -0.0904 H   0  0  0  0  0  0  0  0  0  0  0  0
   11.1197   -2.1078    1.0855 H   0  0  0  0  0  0  0  0  0  0  0  0
    9.4589    0.4696   -1.6300 H   0  0  0  0  0  0  0  0  0  0  0  0
    4.0629   -3.5152   -5.8549 H   0  0  0  0  0  0  0  0  0  0  0  0
    1.9080   -0.2935   -4.5279 H   0  0  0  0  0  0  0  0  0  0  0  0
    5.0913   -2.3191   -1.8726 H   0  0  0  0  0  0  0  0  0  0  0  0
    3.8077   -1.1616   -0.1712 H   0  0  0  0  0  0  0  0  0  0  0  0
  1  2  1  0  0  0  0
  2  3  1  0  0  0  0
  2  4  1  0  0  0  0
  2 43  1  0  0  0  0
  4  5  1  0  0  0  0
  4 44  1  0  0  0  0
  4 45  1  0  0  0  0
  5  6  1  0  0  0  0
  5 42  1  0  0  0  0
  6  7  2  0  0  0  0
  6  8  1  0  0  0  0
  8  9  1  0  0  0  0
  8 46  1  0  0  0  0
  8 47  1  0  0  0  0
  9 10  1  0  0  0  0
  9 48  1  0  0  0  0
  9 49  1  0  0  0  0
 10 11  1  0  0  0  0
 10 42  2  0  0  0  0
 11 12  2  0  0  0  0
 11 50  1  0  0  0  0
 12 13  1  0  0  0  0
 12 40  1  0  0  0  0
 13 14  1  0  0  0  0
 13 33  1  0  0  0  0
 14 15  1  0  0  0  0
 14 27  1  0  0  0  0
 14 51  1  0  0  0  0
 15 16  2  0  0  0  0
 15 17  1  0  0  0  0
 17 18  1  0  0  0  0
 17 52  1  0  0  0  0
 18 19  1  0  0  0  0
 18 53  1  0  0  0  0
 18 54  1  0  0  0  0
 19 20  1  0  0  0  0
 19 55  1  0  0  0  0
 19 56  1  0  0  0  0
 20 21  1  0  0  0  0
 20 26  2  0  0  0  0
 21 22  2  0  0  0  0
 21 57  1  0  0  0  0
 22 23  1  0  0  0  0
 22 58  1  0  0  0  0
 23 24  2  0  0  0  0
 23 59  1  0  0  0  0
 24 25  1  0  0  0  0
 24 26  1  0  0  0  0
 26 60  1  0  0  0  0
 27 28  1  0  0  0  0
 27 32  2  0  0  0  0
 28 29  2  0  0  0  0
 28 61  1  0  0  0  0
 29 30  1  0  0  0  0
 29 62  1  0  0  0  0
 30 31  2  0  0  0  0
 30 63  1  0  0  0  0
 31 32  1  0  0  0  0
 32 64  1  0  0  0  0
 33 34  2  0  0  0  0
 33 35  1  0  0  0  0
 35 36  2  0  0  0  0
 35 39  1  0  0  0  0
 36 37  1  0  0  0  0
 36 65  1  0  0  0  0
 37 38  1  0  0  0  0
 38 39  2  0  0  0  0
 38 66  1  0  0  0  0
 40 41  2  0  0  0  0
 40 67  1  0  0  0  0
 41 42  1  0  0  0  0
 41 68  1  0  0  0  0
M  END
$$$$
