
 OpenBabel07202414193D

 49 53  0  0  1  0  0  0  0  0999 V2000
    2.7425    0.1222   -1.0340 O   0  0  0  0  0  0  0  0  0  0  0  0
    2.2729   -0.1562    0.0712 C   0  0  0  0  0  0  0  0  0  0  0  0
    1.1095   -1.1452    0.1759 C   0  0  0  0  0  0  0  0  0  0  0  0
    1.5454   -2.5915    0.2647 C   0  0  0  0  0  0  0  0  0  0  0  0
    2.6068   -3.0230   -0.5373 C   0  0  0  0  0  0  0  0  0  0  0  0
    3.1130   -4.2723   -0.5399 N   0  0  0  0  0  0  0  0  0  0  0  0
    2.5260   -5.1571    0.2880 C   0  0  0  0  0  0  0  0  0  0  0  0
    1.4367   -4.8733    1.1084 C   0  0  0  0  0  0  0  0  0  0  0  0
    0.8804   -5.8683    1.9316 C   0  0  0  0  0  0  0  0  0  0  0  0
   -0.2354   -5.5973    2.7173 C   0  0  0  0  0  0  0  0  0  0  0  0
   -0.8104   -4.3338    2.6746 C   0  0  0  0  0  0  0  0  0  0  0  0
   -0.2514   -3.3306    1.8724 C   0  0  0  0  0  0  0  0  0  0  0  0
    0.9014   -3.5632    1.0819 C   0  0  0  0  0  0  0  0  0  0  0  0
    2.7638    0.4056    1.2343 N   0  0  0  0  0  0  0  0  0  0  0  0
    2.4717   -0.0436    2.5836 C   0  0  0  0  0  0  0  0  0  0  0  0
    2.9731    1.0981    3.4444 C   0  0  0  0  0  0  0  0  0  0  0  0
    4.2520    1.5187    2.7276 C   0  0  0  0  0  0  0  0  0  0  0  0
    3.9425    1.2907    1.2339 C   0  0  2  0  0  0  0  0  0  0  0  0
    3.7816    2.5998    0.4994 C   0  0  0  0  0  0  0  0  0  0  0  0
    4.9048    3.2581    0.0054 C   0  0  0  0  0  0  0  0  0  0  0  0
    4.8753    4.4043   -0.7152 N   0  0  0  0  0  0  0  0  0  0  0  0
    3.6723    4.9332   -1.0009 C   0  0  0  0  0  0  0  0  0  0  0  0
    3.5860    6.0552   -1.8120 C   0  0  0  0  0  0  0  0  0  0  0  0
    2.3534    6.6173   -2.1598 C   0  0  0  0  0  0  0  0  0  0  0  0
    1.1765    6.0667   -1.6652 C   0  0  0  0  0  0  0  0  0  0  0  0
    1.2342    4.9522   -0.8352 C   0  0  0  0  0  0  0  0  0  0  0  0
    2.4712    4.3719   -0.5154 C   0  0  0  0  0  0  0  0  0  0  0  0
    2.5507    3.2080    0.2628 C   0  0  0  0  0  0  0  0  0  0  0  0
    0.4853   -1.0233   -0.7188 H   0  0  0  0  0  0  0  0  0  0  0  0
    0.4709   -0.8492    1.0098 H   0  0  0  0  0  0  0  0  0  0  0  0
    3.1046   -2.3528   -1.2357 H   0  0  0  0  0  0  0  0  0  0  0  0
    2.9664   -6.1503    0.2590 H   0  0  0  0  0  0  0  0  0  0  0  0
    1.3123   -6.8672    1.9585 H   0  0  0  0  0  0  0  0  0  0  0  0
   -0.6602   -6.3740    3.3477 H   0  0  0  0  0  0  0  0  0  0  0  0
   -1.7000   -4.1261    3.2644 H   0  0  0  0  0  0  0  0  0  0  0  0
   -0.7530   -2.3668    1.8632 H   0  0  0  0  0  0  0  0  0  0  0  0
    3.0479   -0.9598    2.7607 H   0  0  0  0  0  0  0  0  0  0  0  0
    1.4138   -0.2513    2.7434 H   0  0  0  0  0  0  0  0  0  0  0  0
    3.1395    0.8056    4.4841 H   0  0  0  0  0  0  0  0  0  0  0  0
    2.2495    1.9220    3.4270 H   0  0  0  0  0  0  0  0  0  0  0  0
    5.0714    0.8586    3.0378 H   0  0  0  0  0  0  0  0  0  0  0  0
    4.5400    2.5450    2.9795 H   0  0  0  0  0  0  0  0  0  0  0  0
    4.7624    0.7278    0.7672 H   0  0  0  0  0  0  0  0  0  0  0  0
    5.9057    2.8645    0.1677 H   0  0  0  0  0  0  0  0  0  0  0  0
    4.5024    6.4902   -2.2035 H   0  0  0  0  0  0  0  0  0  0  0  0
    2.3182    7.4775   -2.8230 H   0  0  0  0  0  0  0  0  0  0  0  0
    0.2151    6.4945   -1.9354 H   0  0  0  0  0  0  0  0  0  0  0  0
    0.3118    4.5193   -0.4585 H   0  0  0  0  0  0  0  0  0  0  0  0
    1.6404    2.7496    0.6391 H   0  0  0  0  0  0  0  0  0  0  0  0
  1  2  2  0  0  0  0
  2  3  1  0  0  0  0
  2 14  1  0  0  0  0
  3  4  1  0  0  0  0
  3 29  1  0  0  0  0
  3 30  1  0  0  0  0
  4  5  1  0  0  0  0
  4 13  2  0  0  0  0
  5  6  2  0  0  0  0
  5 31  1  0  0  0  0
  6  7  1  0  0  0  0
  7  8  2  0  0  0  0
  7 32  1  0  0  0  0
  8  9  1  0  0  0  0
  8 13  1  0  0  0  0
  9 10  2  0  0  0  0
  9 33  1  0  0  0  0
 10 11  1  0  0  0  0
 10 34  1  0  0  0  0
 11 12  2  0  0  0  0
 11 35  1  0  0  0  0
 12 13  1  0  0  0  0
 12 36  1  0  0  0  0
 14 15  1  0  0  0  0
 14 18  1  0  0  0  0
 15 16  1  0  0  0  0
 15 37  1  0  0  0  0
 15 38  1  0  0  0  0
 16 17  1  0  0  0  0
 16 39  1  0  0  0  0
 16 40  1  0  0  0  0
 17 18  1  0  0  0  0
 17 41  1  0  0  0  0
 17 42  1  0  0  0  0
 18 19  1  0  0  0  0
 18 43  1  6  0  0  0
 19 20  1  0  0  0  0
 19 28  2  0  0  0  0
 20 21  2  0  0  0  0
 20 44  1  0  0  0  0
 21 22  1  0  0  0  0
 22 23  1  0  0  0  0
 22 27  2  0  0  0  0
 23 24  2  0  0  0  0
 23 45  1  0  0  0  0
 24 25  1  0  0  0  0
 24 46  1  0  0  0  0
 25 26  2  0  0  0  0
 25 47  1  0  0  0  0
 26 27  1  0  0  0  0
 26 48  1  0  0  0  0
 27 28  1  0  0  0  0
 28 49  1  0  0  0  0
M  END
$$$$
