
 OpenBabel07202414163D

 40 42  0  0  1  0  0  0  0  0999 V2000
    0.8107   -0.5842   -0.2768 C   0  0  0  0  0  0  0  0  0  0  0  0
    2.2948   -0.4536   -0.1913 C   0  0  0  0  0  0  0  0  0  0  0  0
    3.0621    0.6942   -0.2189 C   0  0  0  0  0  0  0  0  0  0  0  0
    4.4343    0.3251   -0.1344 C   0  0  0  0  0  0  0  0  0  0  0  0
    5.6049    1.2203   -0.1194 C   0  0  0  0  0  0  0  0  0  0  0  0
    6.6804    0.8756   -0.6192 O   0  0  0  0  0  0  0  0  0  0  0  0
    5.4846    2.5507    0.5711 C   0  0  0  0  0  0  0  0  0  0  0  0
    5.0352    3.8026   -0.5966 Cl  0  0  0  0  0  0  0  0  0  0  0  0
    4.4680   -1.0653   -0.0439 C   0  0  0  0  0  0  0  0  0  0  0  0
    5.6441   -1.9836    0.0600 C   0  0  0  0  0  0  0  0  0  0  0  0
    3.1592   -1.5103    0.0221 N   0  0  0  0  0  0  0  0  0  0  0  0
    2.7322   -2.8478    0.4346 C   0  0  0  0  0  0  0  0  0  0  0  0
    2.5438   -2.9229    1.9668 C   0  0  3  0  0  0  0  0  0  0  0  0
    2.0843   -4.3064    2.4316 C   0  0  0  0  0  0  0  0  0  0  0  0
    0.7196   -4.4835    2.7965 O   0  0  0  0  0  0  0  0  0  0  0  0
    0.0331   -3.3479    3.0878 C   0  0  0  0  0  0  0  0  0  0  0  0
   -1.2595   -3.5107    3.5938 C   0  0  0  0  0  0  0  0  0  0  0  0
   -2.0757   -2.4011    3.8301 C   0  0  0  0  0  0  0  0  0  0  0  0
   -1.5993   -1.1220    3.5582 C   0  0  0  0  0  0  0  0  0  0  0  0
   -0.2926   -0.9595    3.0989 C   0  0  0  0  0  0  0  0  0  0  0  0
    0.5258   -2.0728    2.8769 C   0  0  0  0  0  0  0  0  0  0  0  0
    1.7901   -1.8127    2.4613 O   0  0  0  0  0  0  0  0  0  0  0  0
    0.3291    0.1942    0.3226 H   0  0  0  0  0  0  0  0  0  0  0  0
    0.4380   -1.5426    0.0848 H   0  0  0  0  0  0  0  0  0  0  0  0
    0.4779   -0.4804   -1.3132 H   0  0  0  0  0  0  0  0  0  0  0  0
    2.6616    1.6972   -0.3140 H   0  0  0  0  0  0  0  0  0  0  0  0
    6.4564    2.8111    1.0033 H   0  0  0  0  0  0  0  0  0  0  0  0
    4.7530    2.5190    1.3824 H   0  0  0  0  0  0  0  0  0  0  0  0
    6.5930   -1.4440    0.1086 H   0  0  0  0  0  0  0  0  0  0  0  0
    5.6832   -2.6452   -0.8105 H   0  0  0  0  0  0  0  0  0  0  0  0
    5.5840   -2.5958    0.9650 H   0  0  0  0  0  0  0  0  0  0  0  0
    3.4979   -3.5601    0.1052 H   0  0  0  0  0  0  0  0  0  0  0  0
    1.8229   -3.1010   -0.1183 H   0  0  0  0  0  0  0  0  0  0  0  0
    3.5466   -2.7768    2.3846 H   0  0  0  0  0  0  0  0  0  0  0  0
    2.6889   -4.6072    3.2949 H   0  0  0  0  0  0  0  0  0  0  0  0
    2.2951   -5.0494    1.6527 H   0  0  0  0  0  0  0  0  0  0  0  0
   -1.6355   -4.5084    3.8036 H   0  0  0  0  0  0  0  0  0  0  0  0
   -3.0834   -2.5368    4.2149 H   0  0  0  0  0  0  0  0  0  0  0  0
   -2.2379   -0.2549    3.7084 H   0  0  0  0  0  0  0  0  0  0  0  0
    0.0848    0.0390    2.8913 H   0  0  0  0  0  0  0  0  0  0  0  0
  1  2  1  0  0  0  0
  1 23  1  0  0  0  0
  1 24  1  0  0  0  0
  1 25  1  0  0  0  0
  2  3  2  0  0  0  0
  2 11  1  0  0  0  0
  3  4  1  0  0  0  0
  3 26  1  0  0  0  0
  4  5  1  0  0  0  0
  4  9  2  0  0  0  0
  5  6  2  0  0  0  0
  5  7  1  0  0  0  0
  7  8  1  0  0  0  0
  7 27  1  0  0  0  0
  7 28  1  0  0  0  0
  9 10  1  0  0  0  0
  9 11  1  0  0  0  0
 10 29  1  0  0  0  0
 10 30  1  0  0  0  0
 10 31  1  0  0  0  0
 11 12  1  0  0  0  0
 12 13  1  0  0  0  0
 12 32  1  0  0  0  0
 12 33  1  0  0  0  0
 13 14  1  0  0  0  0
 13 22  1  0  0  0  0
 13 34  1  0  0  0  0
 14 15  1  0  0  0  0
 14 35  1  0  0  0  0
 14 36  1  0  0  0  0
 15 16  1  0  0  0  0
 16 17  1  0  0  0  0
 16 21  2  0  0  0  0
 17 18  2  0  0  0  0
 17 37  1  0  0  0  0
 18 19  1  0  0  0  0
 18 38  1  0  0  0  0
 19 20  2  0  0  0  0
 19 39  1  0  0  0  0
 20 21  1  0  0  0  0
 20 40  1  0  0  0  0
 21 22  1  0  0  0  0
M  END
$$$$
