
 OpenBabel07202414193D

 42 45  0  0  1  0  0  0  0  0999 V2000
    1.2064   -0.1568    0.6098 O   0  0  0  0  0  0  0  0  0  0  0  0
    2.3675   -0.1577    0.2095 C   0  0  0  0  0  0  0  0  0  0  0  0
    3.1840    1.1482    0.1015 C   0  0  1  0  0  0  0  0  0  0  0  0
    3.9783    1.3960    1.3989 C   0  0  0  0  0  0  0  0  0  0  0  0
    3.4552    0.9738    2.6380 C   0  0  0  0  0  0  0  0  0  0  0  0
    4.1459    1.1764    3.8370 C   0  0  0  0  0  0  0  0  0  0  0  0
    5.3702    1.8377    3.8357 C   0  0  0  0  0  0  0  0  0  0  0  0
    6.1695    2.0608    5.3495 Cl  0  0  0  0  0  0  0  0  0  0  0  0
    5.8968    2.2972    2.6266 C   0  0  0  0  0  0  0  0  0  0  0  0
    7.4062    3.1370    2.5407 Cl  0  0  0  0  0  0  0  0  0  0  0  0
    5.2035    2.0827    1.4221 C   0  0  0  0  0  0  0  0  0  0  0  0
    3.9960    1.1271   -1.2070 C   0  0  0  0  0  0  0  0  0  0  0  0
    4.8704   -0.1208   -1.3245 C   0  0  2  0  0  0  0  0  0  0  0  0
    5.5104   -0.1433   -2.5977 O   0  0  0  0  0  0  0  0  0  0  0  0
    4.0244   -1.3785   -1.1201 C   0  0  0  0  0  0  0  0  0  0  0  0
    3.1727   -1.2875    0.0628 N   0  0  0  0  0  0  0  0  0  0  0  0
    2.9819   -2.4568    0.8547 C   0  0  0  0  0  0  0  0  0  0  0  0
    1.7191   -3.0092    1.0594 C   0  0  0  0  0  0  0  0  0  0  0  0
    1.4870   -4.1275    1.7852 N   0  0  0  0  0  0  0  0  0  0  0  0
    2.5620   -4.6998    2.3729 C   0  0  0  0  0  0  0  0  0  0  0  0
    3.8657   -4.2042    2.3040 C   0  0  0  0  0  0  0  0  0  0  0  0
    4.9286   -4.8145    2.9998 C   0  0  0  0  0  0  0  0  0  0  0  0
    6.2089   -4.2634    2.9780 C   0  0  0  0  0  0  0  0  0  0  0  0
    6.4407   -3.0941    2.2698 C   0  0  0  0  0  0  0  0  0  0  0  0
    5.3955   -2.4920    1.5714 C   0  0  0  0  0  0  0  0  0  0  0  0
    4.0876   -3.0410    1.5403 C   0  0  0  0  0  0  0  0  0  0  0  0
    2.4632    1.9727    0.0187 H   0  0  0  0  0  0  0  0  0  0  0  0
    2.4925    0.4649    2.7015 H   0  0  0  0  0  0  0  0  0  0  0  0
    3.7125    0.8143    4.7666 H   0  0  0  0  0  0  0  0  0  0  0  0
    5.6455    2.4677    0.5065 H   0  0  0  0  0  0  0  0  0  0  0  0
    4.6092    2.0262   -1.3297 H   0  0  0  0  0  0  0  0  0  0  0  0
    3.3002    1.1469   -2.0577 H   0  0  0  0  0  0  0  0  0  0  0  0
    5.6667   -0.0838   -0.5759 H   0  0  0  0  0  0  0  0  0  0  0  0
    4.8353   -0.0946   -3.2970 H   0  0  0  0  0  0  0  0  0  0  0  0
    4.6560   -2.2724   -1.1069 H   0  0  0  0  0  0  0  0  0  0  0  0
    3.3543   -1.5048   -1.9828 H   0  0  0  0  0  0  0  0  0  0  0  0
    0.8270   -2.5791    0.6114 H   0  0  0  0  0  0  0  0  0  0  0  0
    2.3315   -5.5921    2.9495 H   0  0  0  0  0  0  0  0  0  0  0  0
    4.7579   -5.7152    3.5858 H   0  0  0  0  0  0  0  0  0  0  0  0
    7.0188   -4.7318    3.5308 H   0  0  0  0  0  0  0  0  0  0  0  0
    7.4269   -2.6376    2.2671 H   0  0  0  0  0  0  0  0  0  0  0  0
    5.6135   -1.5539    1.0726 H   0  0  0  0  0  0  0  0  0  0  0  0
  1  2  2  0  0  0  0
  2  3  1  0  0  0  0
  2 16  1  0  0  0  0
  3  4  1  0  0  0  0
  3 12  1  0  0  0  0
  3 27  1  6  0  0  0
  4  5  1  0  0  0  0
  4 11  2  0  0  0  0
  5  6  2  0  0  0  0
  5 28  1  0  0  0  0
  6  7  1  0  0  0  0
  6 29  1  0  0  0  0
  7  8  1  0  0  0  0
  7  9  2  0  0  0  0
  9 10  1  0  0  0  0
  9 11  1  0  0  0  0
 11 30  1  0  0  0  0
 12 13  1  0  0  0  0
 12 31  1  0  0  0  0
 12 32  1  0  0  0  0
 13 15  1  0  0  0  0
 13 14  1  0  0  0  0
 13 33  1  1  0  0  0
 14 34  1  0  0  0  0
 15 16  1  0  0  0  0
 15 35  1  0  0  0  0
 15 36  1  0  0  0  0
 16 17  1  0  0  0  0
 17 18  1  0  0  0  0
 17 26  2  0  0  0  0
 18 19  2  0  0  0  0
 18 37  1  0  0  0  0
 19 20  1  0  0  0  0
 20 21  2  0  0  0  0
 20 38  1  0  0  0  0
 21 22  1  0  0  0  0
 21 26  1  0  0  0  0
 22 23  2  0  0  0  0
 22 39  1  0  0  0  0
 23 24  1  0  0  0  0
 23 40  1  0  0  0  0
 24 25  2  0  0  0  0
 24 41  1  0  0  0  0
 25 26  1  0  0  0  0
 25 42  1  0  0  0  0
M  END
$$$$
