
 OpenBabel07202414183D

 32 34  0  0  0  0  0  0  0  0999 V2000
   -1.2726   -4.8138   -2.4115 Cl  0  0  0  0  0  0  0  0  0  0  0  0
    0.1777   -3.8891   -2.4611 C   0  0  0  0  0  0  0  0  0  0  0  0
    0.6762   -3.4459   -3.6812 C   0  0  0  0  0  0  0  0  0  0  0  0
    1.8372   -2.6730   -3.7103 C   0  0  0  0  0  0  0  0  0  0  0  0
    2.4994   -2.3486   -2.5192 C   0  0  0  0  0  0  0  0  0  0  0  0
    2.0159   -2.8102   -1.2862 C   0  0  0  0  0  0  0  0  0  0  0  0
    2.6346   -2.4249    0.0402 C   0  0  0  0  0  0  0  0  0  0  0  0
    4.1165   -2.1130    0.0360 C   0  0  0  0  0  0  0  0  0  0  0  0
    4.5224   -0.9548    0.0997 O   0  0  0  0  0  0  0  0  0  0  0  0
    4.9321   -3.2298   -0.0583 N   0  0  0  0  0  0  0  0  0  0  0  0
    6.3370   -3.0997   -0.0824 C   0  0  0  0  0  0  0  0  0  0  0  0
    7.0436   -2.2628    0.7825 C   0  0  0  0  0  0  0  0  0  0  0  0
    8.3844   -2.0635    0.7527 N   0  0  0  0  0  0  0  0  0  0  0  0
    9.1092   -2.6782   -0.2087 C   0  0  0  0  0  0  0  0  0  0  0  0
    8.4720   -3.5289   -1.1029 C   0  0  0  0  0  0  0  0  0  0  0  0
    8.9733   -4.2229   -2.1791 N   0  0  0  0  0  0  0  0  0  0  0  0
    7.9716   -4.9225   -2.7925 C   0  0  0  0  0  0  0  0  0  0  0  0
    6.8038   -4.6856   -2.1070 C   0  0  0  0  0  0  0  0  0  0  0  0
    7.1009   -3.7853   -1.0412 C   0  0  0  0  0  0  0  0  0  0  0  0
    0.8387   -3.5743   -1.2707 C   0  0  0  0  0  0  0  0  0  0  0  0
    0.1588   -3.6833   -4.6074 H   0  0  0  0  0  0  0  0  0  0  0  0
    2.2169   -2.3066   -4.6612 H   0  0  0  0  0  0  0  0  0  0  0  0
    3.3831   -1.7122   -2.5756 H   0  0  0  0  0  0  0  0  0  0  0  0
    2.4739   -3.2257    0.7724 H   0  0  0  0  0  0  0  0  0  0  0  0
    2.1130   -1.5367    0.4169 H   0  0  0  0  0  0  0  0  0  0  0  0
    4.5409   -4.0279   -0.5447 H   0  0  0  0  0  0  0  0  0  0  0  0
    6.5330   -1.7172    1.5725 H   0  0  0  0  0  0  0  0  0  0  0  0
   10.1687   -2.4545   -0.2367 H   0  0  0  0  0  0  0  0  0  0  0  0
    9.9341   -4.1845   -2.4913 H   0  0  0  0  0  0  0  0  0  0  0  0
    8.1687   -5.5129   -3.6804 H   0  0  0  0  0  0  0  0  0  0  0  0
    5.8332   -5.0846   -2.3670 H   0  0  0  0  0  0  0  0  0  0  0  0
    0.4161   -3.9097   -0.3268 H   0  0  0  0  0  0  0  0  0  0  0  0
  1  2  1  0  0  0  0
  2  3  1  0  0  0  0
  2 20  2  0  0  0  0
  3  4  2  0  0  0  0
  3 21  1  0  0  0  0
  4  5  1  0  0  0  0
  4 22  1  0  0  0  0
  5  6  2  0  0  0  0
  5 23  1  0  0  0  0
  6  7  1  0  0  0  0
  6 20  1  0  0  0  0
  7  8  1  0  0  0  0
  7 24  1  0  0  0  0
  7 25  1  0  0  0  0
  8  9  2  0  0  0  0
  8 10  1  0  0  0  0
 10 11  1  0  0  0  0
 10 26  1  0  0  0  0
 11 12  1  0  0  0  0
 11 19  2  0  0  0  0
 12 13  2  0  0  0  0
 12 27  1  0  0  0  0
 13 14  1  0  0  0  0
 14 15  2  0  0  0  0
 14 28  1  0  0  0  0
 15 16  1  0  0  0  0
 15 19  1  0  0  0  0
 16 17  1  0  0  0  0
 16 29  1  0  0  0  0
 17 18  2  0  0  0  0
 17 30  1  0  0  0  0
 18 19  1  0  0  0  0
 18 31  1  0  0  0  0
 20 32  1  0  0  0  0
M  END
$$$$
