
 OpenBabel07202414163D

 41 44  0  0  0  0  0  0  0  0999 V2000
    1.0385   -0.1147   -0.0748 C   0  0  0  0  0  0  0  0  0  0  0  0
    2.5341   -0.0728   -0.0311 C   0  0  0  0  0  0  0  0  0  0  0  0
    3.2533   -1.2765   -0.1267 C   0  0  0  0  0  0  0  0  0  0  0  0
    4.6393   -1.2678   -0.1029 C   0  0  0  0  0  0  0  0  0  0  0  0
    5.3468   -0.0610    0.0096 C   0  0  0  0  0  0  0  0  0  0  0  0
    4.6261    1.1468    0.0647 C   0  0  0  0  0  0  0  0  0  0  0  0
    5.0316    2.4754    0.1476 N   0  0  0  0  0  0  0  0  0  0  0  0
    3.9465    3.3393   -0.1242 C   0  0  0  0  0  0  0  0  0  0  0  0
    4.0405    4.8316   -0.6114 C   0  0  0  0  0  0  0  0  0  0  0  0
    5.4713    5.2329   -0.7570 N   0  0  0  0  0  0  0  0  0  0  0  0
    6.2615    5.7907    0.2049 C   0  0  0  0  0  0  0  0  0  0  0  0
    7.4037    6.0178   -0.1949 O   0  0  0  0  0  0  0  0  0  0  0  0
    5.6141    6.1424    1.7496 C   0  0  0  0  0  0  0  0  0  0  0  0
    4.5482    5.5812    2.6257 C   0  0  0  0  0  0  0  0  0  0  0  0
    4.9537    6.5594    3.3615 N   0  0  0  0  0  0  0  0  0  0  0  0
    5.3258    7.5355    4.1385 C   0  0  0  0  0  0  0  0  0  0  0  0
    6.3362    8.0180    3.3593 C   0  0  0  0  0  0  0  0  0  0  0  0
    7.1221    9.0257    3.8850 C   0  0  0  0  0  0  0  0  0  0  0  0
    8.3727    9.3448    3.3621 C   0  0  0  0  0  0  0  0  0  0  0  0
    8.6338    9.0927    2.0486 C   0  0  0  0  0  0  0  0  0  0  0  0
    7.7520    8.2066    1.4167 C   0  0  0  0  0  0  0  0  0  0  0  0
    6.6050    7.4437    2.0973 C   0  0  0  0  0  0  0  0  0  0  0  0
    2.8305    2.5270    0.1408 C   0  0  0  0  0  0  0  0  0  0  0  0
    3.2416    1.1554    0.0600 C   0  0  0  0  0  0  0  0  0  0  0  0
    0.6662   -1.1391   -0.1681 H   0  0  0  0  0  0  0  0  0  0  0  0
    0.6821    0.4635   -0.9324 H   0  0  0  0  0  0  0  0  0  0  0  0
    0.6437    0.3188    0.8472 H   0  0  0  0  0  0  0  0  0  0  0  0
    2.7241   -2.2246   -0.2215 H   0  0  0  0  0  0  0  0  0  0  0  0
    5.1773   -2.2114   -0.1767 H   0  0  0  0  0  0  0  0  0  0  0  0
    6.4287   -0.0880    0.0199 H   0  0  0  0  0  0  0  0  0  0  0  0
    6.0056    2.7061    0.3174 H   0  0  0  0  0  0  0  0  0  0  0  0
    3.5002    5.5288    0.0629 H   0  0  0  0  0  0  0  0  0  0  0  0
    3.5083    4.9668   -1.5842 H   0  0  0  0  0  0  0  0  0  0  0  0
    5.8975    5.1691   -1.6527 H   0  0  0  0  0  0  0  0  0  0  0  0
    3.7717    5.3638    3.5170 H   0  0  0  0  0  0  0  0  0  0  0  0
    4.9475    7.6991    5.1164 H   0  0  0  0  0  0  0  0  0  0  0  0
    6.7187    9.5714    4.7136 H   0  0  0  0  0  0  0  0  0  0  0  0
    9.1112    9.8069    4.0038 H   0  0  0  0  0  0  0  0  0  0  0  0
    9.4900    9.5551    1.5442 H   0  0  0  0  0  0  0  0  0  0  0  0
    8.0447    8.0943    0.3680 H   0  0  0  0  0  0  0  0  0  0  0  0
    1.7711    2.7608    0.2334 H   0  0  0  0  0  0  0  0  0  0  0  0
  1  2  1  0  0  0  0
  1 25  1  0  0  0  0
  1 26  1  0  0  0  0
  1 27  1  0  0  0  0
  2  3  1  0  0  0  0
  2 24  2  0  0  0  0
  3  4  2  0  0  0  0
  3 28  1  0  0  0  0
  4  5  1  0  0  0  0
  4 29  1  0  0  0  0
  5  6  2  0  0  0  0
  5 30  1  0  0  0  0
  6  7  1  0  0  0  0
  6 24  1  0  0  0  0
  7  8  1  0  0  0  0
  7 31  1  0  0  0  0
  8  9  1  0  0  0  0
  8 23  2  0  0  0  0
  9 10  1  0  0  0  0
  9 32  1  0  0  0  0
  9 33  1  0  0  0  0
 10 11  1  0  0  0  0
 10 34  1  0  0  0  0
 11 12  2  0  0  0  0
 11 13  1  0  0  0  0
 13 14  1  0  0  0  0
 13 22  2  0  0  0  0
 14 15  2  0  0  0  0
 14 35  1  0  0  0  0
 15 16  1  0  0  0  0
 16 17  2  0  0  0  0
 16 36  1  0  0  0  0
 17 18  1  0  0  0  0
 17 22  1  0  0  0  0
 18 19  2  0  0  0  0
 18 37  1  0  0  0  0
 19 20  1  0  0  0  0
 19 38  1  0  0  0  0
 20 21  2  0  0  0  0
 20 39  1  0  0  0  0
 21 22  1  0  0  0  0
 21 40  1  0  0  0  0
 23 24  1  0  0  0  0
 23 41  1  0  0  0  0
M  END
$$$$
