
 OpenBabel07202414183D

 35 37  0  0  0  0  0  0  0  0999 V2000
    0.9552   -0.1771    0.0373 C   0  0  0  0  0  0  0  0  0  0  0  0
    2.4005   -0.1664    0.0455 N   0  0  0  0  0  0  0  0  0  0  0  0
    3.1165    1.0065    0.0418 C   0  0  0  0  0  0  0  0  0  0  0  0
    4.4496    0.6933    0.0468 C   0  0  0  0  0  0  0  0  0  0  0  0
    4.5541   -0.7228    0.0541 C   0  0  0  0  0  0  0  0  0  0  0  0
    5.6640   -1.5731    0.0574 C   0  0  0  0  0  0  0  0  0  0  0  0
    5.5094   -2.9080    0.0598 N   0  0  0  0  0  0  0  0  0  0  0  0
    4.2520   -3.4086    0.0551 C   0  0  0  0  0  0  0  0  0  0  0  0
    3.0582   -2.6698    0.0520 C   0  0  0  0  0  0  0  0  0  0  0  0
    1.7761   -3.2722    0.0585 N   0  0  0  0  0  0  0  0  0  0  0  0
    1.5075   -4.6345    0.0316 C   0  0  0  0  0  0  0  0  0  0  0  0
    2.3381   -5.5377   -0.0326 O   0  0  0  0  0  0  0  0  0  0  0  0
    0.0266   -4.9746    0.1187 C   0  0  0  0  0  0  0  0  0  0  0  0
   -0.4487   -5.0816    1.5469 C   0  0  0  0  0  0  0  0  0  0  0  0
    0.1148   -6.0315    2.4145 C   0  0  0  0  0  0  0  0  0  0  0  0
   -0.2873   -6.1043    3.7492 C   0  0  0  0  0  0  0  0  0  0  0  0
   -1.2657   -5.2359    4.2298 C   0  0  0  0  0  0  0  0  0  0  0  0
   -1.8467   -4.3080    3.3684 C   0  0  0  0  0  0  0  0  0  0  0  0
   -3.0569   -3.2350    3.9565 Cl  0  0  0  0  0  0  0  0  0  0  0  0
   -1.4489   -4.2298    2.0327 C   0  0  0  0  0  0  0  0  0  0  0  0
    3.2512   -1.2649    0.0515 C   0  0  0  0  0  0  0  0  0  0  0  0
    0.5797    0.8505    0.0231 H   0  0  0  0  0  0  0  0  0  0  0  0
    0.6052   -0.6717    0.9459 H   0  0  0  0  0  0  0  0  0  0  0  0
    0.6152   -0.6941   -0.8625 H   0  0  0  0  0  0  0  0  0  0  0  0
    2.6248    1.9707    0.0324 H   0  0  0  0  0  0  0  0  0  0  0  0
    5.2681    1.4030    0.0464 H   0  0  0  0  0  0  0  0  0  0  0  0
    6.6839   -1.2079    0.0604 H   0  0  0  0  0  0  0  0  0  0  0  0
    4.2531   -4.4932    0.0665 H   0  0  0  0  0  0  0  0  0  0  0  0
    0.9800   -2.6582    0.1206 H   0  0  0  0  0  0  0  0  0  0  0  0
   -0.1389   -5.9319   -0.3926 H   0  0  0  0  0  0  0  0  0  0  0  0
   -0.5517   -4.2292   -0.4395 H   0  0  0  0  0  0  0  0  0  0  0  0
    0.8859   -6.7152    2.0579 H   0  0  0  0  0  0  0  0  0  0  0  0
    0.1700   -6.8332    4.4144 H   0  0  0  0  0  0  0  0  0  0  0  0
   -1.5675   -5.2873    5.2722 H   0  0  0  0  0  0  0  0  0  0  0  0
   -1.9200   -3.5026    1.3767 H   0  0  0  0  0  0  0  0  0  0  0  0
  1  2  1  0  0  0  0
  1 22  1  0  0  0  0
  1 23  1  0  0  0  0
  1 24  1  0  0  0  0
  2  3  1  0  0  0  0
  2 21  1  0  0  0  0
  3  4  2  0  0  0  0
  3 25  1  0  0  0  0
  4  5  1  0  0  0  0
  4 26  1  0  0  0  0
  5  6  1  0  0  0  0
  5 21  2  0  0  0  0
  6  7  2  0  0  0  0
  6 27  1  0  0  0  0
  7  8  1  0  0  0  0
  8  9  2  0  0  0  0
  8 28  1  0  0  0  0
  9 10  1  0  0  0  0
  9 21  1  0  0  0  0
 10 11  1  0  0  0  0
 10 29  1  0  0  0  0
 11 12  2  0  0  0  0
 11 13  1  0  0  0  0
 13 14  1  0  0  0  0
 13 30  1  0  0  0  0
 13 31  1  0  0  0  0
 14 15  1  0  0  0  0
 14 20  2  0  0  0  0
 15 16  2  0  0  0  0
 15 32  1  0  0  0  0
 16 17  1  0  0  0  0
 16 33  1  0  0  0  0
 17 18  2  0  0  0  0
 17 34  1  0  0  0  0
 18 19  1  0  0  0  0
 18 20  1  0  0  0  0
 20 35  1  0  0  0  0
M  END
$$$$
