
 OpenBabel07202414143D

 38 40  0  0  1  0  0  0  0  0999 V2000
    2.9644    3.5469    0.4665 C   0  0  0  0  0  0  0  0  0  0  0  0
    2.7140    2.7262   -0.6750 O   0  0  0  0  0  0  0  0  0  0  0  0
    2.9786    1.3322   -0.4344 C   0  0  3  0  0  0  0  0  0  0  0  0
    2.3987    0.4610   -1.5509 C   0  0  0  0  0  0  0  0  0  0  0  0
    2.6120   -0.9300   -1.5416 C   0  0  0  0  0  0  0  0  0  0  0  0
    2.1495   -1.7403   -2.5826 C   0  0  0  0  0  0  0  0  0  0  0  0
    1.4379   -1.1814   -3.6436 C   0  0  0  0  0  0  0  0  0  0  0  0
    1.1731    0.1907   -3.6477 C   0  0  0  0  0  0  0  0  0  0  0  0
    1.6501    1.0033   -2.6083 C   0  0  0  0  0  0  0  0  0  0  0  0
    0.2661    0.9511   -4.9080 Cl  0  0  0  0  0  0  0  0  0  0  0  0
    0.9259   -2.2336   -4.9148 Cl  0  0  0  0  0  0  0  0  0  0  0  0
    4.5036    1.0779   -0.2993 C   0  0  0  0  0  0  0  0  0  0  0  0
    4.9365    0.1508    0.3833 O   0  0  0  0  0  0  0  0  0  0  0  0
    5.2710    1.9936   -1.0085 N   0  0  0  0  0  0  0  0  0  0  0  0
    6.6797    2.0221   -1.0757 C   0  0  0  0  0  0  0  0  0  0  0  0
    7.4443    0.8828   -0.8161 C   0  0  0  0  0  0  0  0  0  0  0  0
    8.7918    0.8248   -0.8923 N   0  0  0  0  0  0  0  0  0  0  0  0
    9.4184    1.9652   -1.2381 C   0  0  0  0  0  0  0  0  0  0  0  0
    8.7767    3.1720   -1.5142 C   0  0  0  0  0  0  0  0  0  0  0  0
    7.3640    3.2184   -1.4361 C   0  0  0  0  0  0  0  0  0  0  0  0
    6.7507    4.4743   -1.6893 C   0  0  0  0  0  0  0  0  0  0  0  0
    7.5030    5.6110   -2.0107 C   0  0  0  0  0  0  0  0  0  0  0  0
    8.8867    5.5309   -2.0948 C   0  0  0  0  0  0  0  0  0  0  0  0
    9.5207    4.3170   -1.8483 C   0  0  0  0  0  0  0  0  0  0  0  0
    2.6587    4.5671    0.2203 H   0  0  0  0  0  0  0  0  0  0  0  0
    4.0322    3.5710    0.7043 H   0  0  0  0  0  0  0  0  0  0  0  0
    2.3985    3.2045    1.3366 H   0  0  0  0  0  0  0  0  0  0  0  0
    2.4906    1.0419    0.5056 H   0  0  0  0  0  0  0  0  0  0  0  0
    3.1639   -1.4020   -0.7264 H   0  0  0  0  0  0  0  0  0  0  0  0
    2.3581   -2.8083   -2.5619 H   0  0  0  0  0  0  0  0  0  0  0  0
    1.4398    2.0709   -2.6350 H   0  0  0  0  0  0  0  0  0  0  0  0
    4.7500    2.7746   -1.3972 H   0  0  0  0  0  0  0  0  0  0  0  0
    6.9917   -0.0709   -0.5640 H   0  0  0  0  0  0  0  0  0  0  0  0
   10.5008    1.8793   -1.2829 H   0  0  0  0  0  0  0  0  0  0  0  0
    5.6741    4.5998   -1.6211 H   0  0  0  0  0  0  0  0  0  0  0  0
    7.0057    6.5617   -2.1889 H   0  0  0  0  0  0  0  0  0  0  0  0
    9.4737    6.4115   -2.3438 H   0  0  0  0  0  0  0  0  0  0  0  0
   10.6066    4.2693   -1.9087 H   0  0  0  0  0  0  0  0  0  0  0  0
  1  2  1  0  0  0  0
  1 25  1  0  0  0  0
  1 26  1  0  0  0  0
  1 27  1  0  0  0  0
  2  3  1  0  0  0  0
  3  4  1  0  0  0  0
  3 12  1  0  0  0  0
  3 28  1  0  0  0  0
  4  5  1  0  0  0  0
  4  9  2  0  0  0  0
  5  6  2  0  0  0  0
  5 29  1  0  0  0  0
  6  7  1  0  0  0  0
  6 30  1  0  0  0  0
  7  8  2  0  0  0  0
  7 11  1  0  0  0  0
  8  9  1  0  0  0  0
  8 10  1  0  0  0  0
  9 31  1  0  0  0  0
 12 13  2  0  0  0  0
 12 14  1  0  0  0  0
 14 15  1  0  0  0  0
 14 32  1  0  0  0  0
 15 16  1  0  0  0  0
 15 20  2  0  0  0  0
 16 17  2  0  0  0  0
 16 33  1  0  0  0  0
 17 18  1  0  0  0  0
 18 19  2  0  0  0  0
 18 34  1  0  0  0  0
 19 20  1  0  0  0  0
 19 24  1  0  0  0  0
 20 21  1  0  0  0  0
 21 22  2  0  0  0  0
 21 35  1  0  0  0  0
 22 23  1  0  0  0  0
 22 36  1  0  0  0  0
 23 24  2  0  0  0  0
 23 37  1  0  0  0  0
 24 38  1  0  0  0  0
M  END
$$$$
