
 OpenBabel07202414133D

 44 45  0  0  1  0  0  0  0  0999 V2000
    5.9170    3.0498    3.2802 C   0  0  0  0  0  0  0  0  0  0  0  0
    6.7927    1.9213    2.7585 C   0  0  0  0  0  0  0  0  0  0  0  0
    6.0950    1.1292    1.6507 C   0  0  0  0  0  0  0  0  0  0  0  0
    6.9733    0.0076    1.0933 C   0  0  0  0  0  0  0  0  0  0  0  0
    7.3180   -0.9907    2.0792 N   0  0  0  0  0  0  0  0  0  0  0  0
    6.5050   -2.0732    2.3596 C   0  0  0  0  0  0  0  0  0  0  0  0
    5.4464   -2.2551    1.7608 O   0  0  0  0  0  0  0  0  0  0  0  0
    6.9897   -2.9670    3.3907 C   0  0  0  0  0  0  0  0  0  0  0  0
    6.4018   -4.1223    3.8646 C   0  0  0  0  0  0  0  0  0  0  0  0
    7.0626   -4.7543    4.9045 N   0  0  0  0  0  0  0  0  0  0  0  0
    8.1936   -4.1232    5.1692 C   0  0  0  0  0  0  0  0  0  0  0  0
    9.2489   -4.5395    6.1871 C   0  0  1  0  0  0  0  0  0  0  0  0
    8.9440   -3.9693    7.4905 N   0  0  0  0  0  0  0  0  0  0  0  0
    9.4152   -2.7370    7.9000 C   0  0  0  0  0  0  0  0  0  0  0  0
   10.0833   -2.0015    7.1836 O   0  0  0  0  0  0  0  0  0  0  0  0
    8.9665   -2.3045    9.2964 C   0  0  0  0  0  0  0  0  0  0  0  0
    8.7465   -3.7017   10.3804 Cl  0  0  0  0  0  0  0  0  0  0  0  0
    9.4623   -6.0509    6.2633 C   0  0  0  0  0  0  0  0  0  0  0  0
   10.7321   -6.5744    5.9606 C   0  0  0  0  0  0  0  0  0  0  0  0
   10.9738   -7.9504    5.9855 C   0  0  0  0  0  0  0  0  0  0  0  0
    9.9533   -8.8323    6.3267 C   0  0  0  0  0  0  0  0  0  0  0  0
    8.6878   -8.3373    6.6337 C   0  0  0  0  0  0  0  0  0  0  0  0
    8.4409   -6.9586    6.6007 C   0  0  0  0  0  0  0  0  0  0  0  0
    8.4631   -2.7070    4.2227 S   0  0  0  0  0  0  0  0  0  0  0  0
    6.4395    3.5984    4.0705 H   0  0  0  0  0  0  0  0  0  0  0  0
    4.9835    2.6600    3.6986 H   0  0  0  0  0  0  0  0  0  0  0  0
    5.6691    3.7569    2.4825 H   0  0  0  0  0  0  0  0  0  0  0  0
    7.0456    1.2584    3.5933 H   0  0  0  0  0  0  0  0  0  0  0  0
    7.7319    2.3408    2.3798 H   0  0  0  0  0  0  0  0  0  0  0  0
    5.8364    1.8088    0.8284 H   0  0  0  0  0  0  0  0  0  0  0  0
    5.1531    0.7162    2.0310 H   0  0  0  0  0  0  0  0  0  0  0  0
    7.9108    0.4138    0.7005 H   0  0  0  0  0  0  0  0  0  0  0  0
    6.4489   -0.4896    0.2713 H   0  0  0  0  0  0  0  0  0  0  0  0
    8.1972   -0.9107    2.5756 H   0  0  0  0  0  0  0  0  0  0  0  0
    5.4742   -4.5494    3.4913 H   0  0  0  0  0  0  0  0  0  0  0  0
   10.2022   -4.0962    5.8725 H   0  0  0  0  0  0  0  0  0  0  0  0
    8.4350   -4.5391    8.1564 H   0  0  0  0  0  0  0  0  0  0  0  0
    8.0164   -1.7645    9.2308 H   0  0  0  0  0  0  0  0  0  0  0  0
    9.7259   -1.6570    9.7469 H   0  0  0  0  0  0  0  0  0  0  0  0
   11.5499   -5.9101    5.6882 H   0  0  0  0  0  0  0  0  0  0  0  0
   11.9598   -8.3325    5.7338 H   0  0  0  0  0  0  0  0  0  0  0  0
   10.1422   -9.9028    6.3458 H   0  0  0  0  0  0  0  0  0  0  0  0
    7.8878   -9.0292    6.8877 H   0  0  0  0  0  0  0  0  0  0  0  0
    7.4310   -6.6091    6.8093 H   0  0  0  0  0  0  0  0  0  0  0  0
  1  2  1  0  0  0  0
  1 25  1  0  0  0  0
  1 26  1  0  0  0  0
  1 27  1  0  0  0  0
  2  3  1  0  0  0  0
  2 28  1  0  0  0  0
  2 29  1  0  0  0  0
  3  4  1  0  0  0  0
  3 30  1  0  0  0  0
  3 31  1  0  0  0  0
  4  5  1  0  0  0  0
  4 32  1  0  0  0  0
  4 33  1  0  0  0  0
  5  6  1  0  0  0  0
  5 34  1  0  0  0  0
  6  7  2  0  0  0  0
  6  8  1  0  0  0  0
  8  9  2  0  0  0  0
  8 24  1  0  0  0  0
  9 10  1  0  0  0  0
  9 35  1  0  0  0  0
 10 11  2  0  0  0  0
 11 12  1  0  0  0  0
 11 24  1  0  0  0  0
 12 13  1  0  0  0  0
 12 18  1  0  0  0  0
 12 36  1  6  0  0  0
 13 14  1  0  0  0  0
 13 37  1  0  0  0  0
 14 15  2  0  0  0  0
 14 16  1  0  0  0  0
 16 17  1  0  0  0  0
 16 38  1  0  0  0  0
 16 39  1  0  0  0  0
 18 19  1  0  0  0  0
 18 23  2  0  0  0  0
 19 20  2  0  0  0  0
 19 40  1  0  0  0  0
 20 21  1  0  0  0  0
 20 41  1  0  0  0  0
 21 22  2  0  0  0  0
 21 42  1  0  0  0  0
 22 23  1  0  0  0  0
 22 43  1  0  0  0  0
 23 44  1  0  0  0  0
M  END
$$$$
