
 OpenBabel07202414183D

 38 40  0  0  0  0  0  0  0  0999 V2000
    9.5449    6.4581    5.5124 F   0  0  0  0  0  0  0  0  0  0  0  0
    8.3417    7.0098    5.2451 C   0  0  0  0  0  0  0  0  0  0  0  0
    7.7587    7.3162    6.4254 F   0  0  0  0  0  0  0  0  0  0  0  0
    8.5362    8.1544    4.5568 F   0  0  0  0  0  0  0  0  0  0  0  0
    7.4630    6.1617    4.5089 O   0  0  0  0  0  0  0  0  0  0  0  0
    7.9317    4.9308    4.1537 C   0  0  0  0  0  0  0  0  0  0  0  0
    9.1928    4.7097    3.6024 C   0  0  0  0  0  0  0  0  0  0  0  0
    9.5805    3.4132    3.2761 C   0  0  0  0  0  0  0  0  0  0  0  0
   11.1523    3.1268    2.6383 Cl  0  0  0  0  0  0  0  0  0  0  0  0
    8.7069    2.3434    3.4647 C   0  0  0  0  0  0  0  0  0  0  0  0
    7.4151    2.5520    3.9746 C   0  0  0  0  0  0  0  0  0  0  0  0
    6.4825    1.3638    4.0661 C   0  0  0  0  0  0  0  0  0  0  0  0
    5.3577    1.4547    5.0773 C   0  0  0  0  0  0  0  0  0  0  0  0
    4.1948    1.6281    4.7228 O   0  0  0  0  0  0  0  0  0  0  0  0
    5.7739    1.3405    6.3924 N   0  0  0  0  0  0  0  0  0  0  0  0
    4.8745    1.3507    7.4894 C   0  0  0  0  0  0  0  0  0  0  0  0
    3.6573    0.6655    7.4285 C   0  0  0  0  0  0  0  0  0  0  0  0
    2.7650    0.5990    8.4415 N   0  0  0  0  0  0  0  0  0  0  0  0
    3.0819    1.2833    9.5608 C   0  0  0  0  0  0  0  0  0  0  0  0
    4.2485    2.0281    9.7383 C   0  0  0  0  0  0  0  0  0  0  0  0
    4.4821    2.7585   10.9127 C   0  0  0  0  0  0  0  0  0  0  0  0
    5.6318    3.5341   11.0525 C   0  0  0  0  0  0  0  0  0  0  0  0
    6.5635    3.5803   10.0226 C   0  0  0  0  0  0  0  0  0  0  0  0
    6.3499    2.8469    8.8547 C   0  0  0  0  0  0  0  0  0  0  0  0
    5.1889    2.0541    8.6783 C   0  0  0  0  0  0  0  0  0  0  0  0
    7.0303    3.8647    4.2877 C   0  0  0  0  0  0  0  0  0  0  0  0
    9.8793    5.5311    3.4153 H   0  0  0  0  0  0  0  0  0  0  0  0
    9.0281    1.3394    3.1887 H   0  0  0  0  0  0  0  0  0  0  0  0
    7.0600    0.4621    4.3119 H   0  0  0  0  0  0  0  0  0  0  0  0
    6.0347    1.1949    3.0767 H   0  0  0  0  0  0  0  0  0  0  0  0
    6.7428    1.5583    6.5806 H   0  0  0  0  0  0  0  0  0  0  0  0
    3.3711    0.0945    6.5486 H   0  0  0  0  0  0  0  0  0  0  0  0
    2.3306    1.2259   10.3440 H   0  0  0  0  0  0  0  0  0  0  0  0
    3.7529    2.7485   11.7188 H   0  0  0  0  0  0  0  0  0  0  0  0
    5.7876    4.1186   11.9539 H   0  0  0  0  0  0  0  0  0  0  0  0
    7.4517    4.1995   10.1193 H   0  0  0  0  0  0  0  0  0  0  0  0
    7.0922    2.9425    8.0676 H   0  0  0  0  0  0  0  0  0  0  0  0
    6.0184    4.0791    4.6339 H   0  0  0  0  0  0  0  0  0  0  0  0
  1  2  1  0  0  0  0
  2  3  1  0  0  0  0
  2  4  1  0  0  0  0
  2  5  1  0  0  0  0
  5  6  1  0  0  0  0
  6  7  1  0  0  0  0
  6 26  2  0  0  0  0
  7  8  2  0  0  0  0
  7 27  1  0  0  0  0
  8  9  1  0  0  0  0
  8 10  1  0  0  0  0
 10 11  2  0  0  0  0
 10 28  1  0  0  0  0
 11 12  1  0  0  0  0
 11 26  1  0  0  0  0
 12 13  1  0  0  0  0
 12 29  1  0  0  0  0
 12 30  1  0  0  0  0
 13 14  2  0  0  0  0
 13 15  1  0  0  0  0
 15 16  1  0  0  0  0
 15 31  1  0  0  0  0
 16 17  1  0  0  0  0
 16 25  2  0  0  0  0
 17 18  2  0  0  0  0
 17 32  1  0  0  0  0
 18 19  1  0  0  0  0
 19 20  2  0  0  0  0
 19 33  1  0  0  0  0
 20 21  1  0  0  0  0
 20 25  1  0  0  0  0
 21 22  2  0  0  0  0
 21 34  1  0  0  0  0
 22 23  1  0  0  0  0
 22 35  1  0  0  0  0
 23 24  2  0  0  0  0
 23 36  1  0  0  0  0
 24 25  1  0  0  0  0
 24 37  1  0  0  0  0
 26 38  1  0  0  0  0
M  END
$$$$
