
 OpenBabel07202414143D

 53 57  0  0  1  0  0  0  0  0999 V2000
    1.4915   -1.9099    1.8920 C   0  0  0  0  0  0  0  0  0  0  0  0
    2.7894   -1.9064    1.2806 N   0  0  0  0  0  0  0  0  0  0  0  0
    3.1234   -1.0404    0.2628 C   0  0  0  0  0  0  0  0  0  0  0  0
    2.3887   -0.1359   -0.1244 O   0  0  0  0  0  0  0  0  0  0  0  0
    4.5529   -1.2101   -0.2712 C   0  0  0  0  0  0  0  0  0  0  0  0
    5.0381   -2.5770   -0.0426 N   0  0  0  0  0  0  0  0  0  0  0  0
    4.8540   -3.5378   -1.1097 C   0  0  0  0  0  0  0  0  0  0  0  0
    4.7652   -5.0151   -0.6755 C   0  0  2  0  0  0  0  0  0  0  0  0
    5.3435   -5.8437   -1.8302 C   0  0  0  0  0  0  0  0  0  0  0  0
    4.2652   -6.8075   -2.2352 C   0  0  0  0  0  0  0  0  0  0  0  0
    3.0496   -6.4504   -1.5727 N   0  0  0  0  0  0  0  0  0  0  0  0
    1.7737   -7.0196   -1.9675 C   0  0  0  0  0  0  0  0  0  0  0  0
    0.5866   -6.4916   -1.4455 C   0  0  0  0  0  0  0  0  0  0  0  0
   -0.6629   -6.7733   -1.8827 N   0  0  0  0  0  0  0  0  0  0  0  0
   -0.7702   -7.6892   -2.8612 C   0  0  0  0  0  0  0  0  0  0  0  0
    0.2966   -8.4144   -3.3760 C   0  0  0  0  0  0  0  0  0  0  0  0
    0.0335   -9.4570   -4.2914 C   0  0  0  0  0  0  0  0  0  0  0  0
    1.0582  -10.2408   -4.8051 C   0  0  0  0  0  0  0  0  0  0  0  0
    2.3542   -9.9534   -4.4397 C   0  0  0  0  0  0  0  0  0  0  0  0
    3.6593  -10.8846   -5.0681 Cl  0  0  0  0  0  0  0  0  0  0  0  0
    2.6212   -8.9118   -3.5434 C   0  0  0  0  0  0  0  0  0  0  0  0
    1.6130   -8.0922   -2.9449 C   0  0  0  0  0  0  0  0  0  0  0  0
    3.2877   -5.4463   -0.6157 C   0  0  0  0  0  0  0  0  0  0  0  0
    2.4850   -4.9542    0.1784 O   0  0  0  0  0  0  0  0  0  0  0  0
    5.5295   -5.2943    0.6135 C   0  0  0  0  0  0  0  0  0  0  0  0
    5.6762   -6.6123    1.0942 C   0  0  0  0  0  0  0  0  0  0  0  0
    6.4654   -6.8843    2.2146 C   0  0  0  0  0  0  0  0  0  0  0  0
    6.6556   -8.5083    2.7473 Cl  0  0  0  0  0  0  0  0  0  0  0  0
    7.1117   -5.8551    2.8881 C   0  0  0  0  0  0  0  0  0  0  0  0
    6.9473   -4.5416    2.4517 C   0  0  0  0  0  0  0  0  0  0  0  0
    6.1517   -4.2559    1.3296 C   0  0  0  0  0  0  0  0  0  0  0  0
    5.9198   -2.8247    0.9934 C   0  0  0  0  0  0  0  0  0  0  0  0
    6.4278   -1.9429    1.6741 O   0  0  0  0  0  0  0  0  0  0  0  0
    1.5155   -2.5880    2.7473 H   0  0  0  0  0  0  0  0  0  0  0  0
    0.7551   -2.2529    1.1612 H   0  0  0  0  0  0  0  0  0  0  0  0
    1.2418   -0.8981    2.2221 H   0  0  0  0  0  0  0  0  0  0  0  0
    3.3585   -2.7402    1.3751 H   0  0  0  0  0  0  0  0  0  0  0  0
    5.1857   -0.4798    0.2408 H   0  0  0  0  0  0  0  0  0  0  0  0
    4.5680   -0.9988   -1.3457 H   0  0  0  0  0  0  0  0  0  0  0  0
    5.7338   -3.3828   -1.7486 H   0  0  0  0  0  0  0  0  0  0  0  0
    3.9756   -3.2548   -1.7049 H   0  0  0  0  0  0  0  0  0  0  0  0
    6.2612   -6.3860   -1.5724 H   0  0  0  0  0  0  0  0  0  0  0  0
    5.6065   -5.2356   -2.7029 H   0  0  0  0  0  0  0  0  0  0  0  0
    4.5598   -7.8071   -1.9097 H   0  0  0  0  0  0  0  0  0  0  0  0
    4.1262   -6.7332   -3.3196 H   0  0  0  0  0  0  0  0  0  0  0  0
    0.5729   -5.7751   -0.6282 H   0  0  0  0  0  0  0  0  0  0  0  0
   -1.7847   -7.8393   -3.2245 H   0  0  0  0  0  0  0  0  0  0  0  0
   -0.9896   -9.6873   -4.5862 H   0  0  0  0  0  0  0  0  0  0  0  0
    0.8393  -11.0707   -5.4730 H   0  0  0  0  0  0  0  0  0  0  0  0
    3.6684   -8.7988   -3.3136 H   0  0  0  0  0  0  0  0  0  0  0  0
    5.1863   -7.4440    0.5917 H   0  0  0  0  0  0  0  0  0  0  0  0
    7.7292   -6.0613    3.7586 H   0  0  0  0  0  0  0  0  0  0  0  0
    7.4302   -3.7339    3.0011 H   0  0  0  0  0  0  0  0  0  0  0  0
  1  2  1  0  0  0  0
  1 34  1  0  0  0  0
  1 35  1  0  0  0  0
  1 36  1  0  0  0  0
  2  3  1  0  0  0  0
  2 37  1  0  0  0  0
  3  4  2  0  0  0  0
  3  5  1  0  0  0  0
  5  6  1  0  0  0  0
  5 38  1  0  0  0  0
  5 39  1  0  0  0  0
  6  7  1  0  0  0  0
  6 32  1  0  0  0  0
  7  8  1  0  0  0  0
  7 40  1  0  0  0  0
  7 41  1  0  0  0  0
  8  9  1  0  0  0  0
  8 23  1  1  0  0  0
  8 25  1  0  0  0  0
  9 10  1  0  0  0  0
  9 42  1  0  0  0  0
  9 43  1  0  0  0  0
 10 11  1  0  0  0  0
 10 44  1  0  0  0  0
 10 45  1  0  0  0  0
 11 12  1  0  0  0  0
 11 23  1  0  0  0  0
 12 13  1  0  0  0  0
 12 22  2  0  0  0  0
 13 14  2  0  0  0  0
 13 46  1  0  0  0  0
 14 15  1  0  0  0  0
 15 16  2  0  0  0  0
 15 47  1  0  0  0  0
 16 17  1  0  0  0  0
 16 22  1  0  0  0  0
 17 18  2  0  0  0  0
 17 48  1  0  0  0  0
 18 19  1  0  0  0  0
 18 49  1  0  0  0  0
 19 20  1  0  0  0  0
 19 21  2  0  0  0  0
 21 22  1  0  0  0  0
 21 50  1  0  0  0  0
 23 24  2  0  0  0  0
 25 26  1  0  0  0  0
 25 31  2  0  0  0  0
 26 27  2  0  0  0  0
 26 51  1  0  0  0  0
 27 28  1  0  0  0  0
 27 29  1  0  0  0  0
 29 30  2  0  0  0  0
 29 52  1  0  0  0  0
 30 31  1  0  0  0  0
 30 53  1  0  0  0  0
 31 32  1  0  0  0  0
 32 33  2  0  0  0  0
M  END
$$$$
