
 OpenBabel07202414143D

 56 60  0  0  1  0  0  0  0  0999 V2000
    1.5376    2.7236   -1.8262 C   0  0  0  0  0  0  0  0  0  0  0  0
    2.7725    2.0017   -1.9368 N   0  0  0  0  0  0  0  0  0  0  0  0
    2.8798    0.6997   -1.5150 C   0  0  0  0  0  0  0  0  0  0  0  0
    1.9469    0.0658   -1.0254 O   0  0  0  0  0  0  0  0  0  0  0  0
    4.2957    0.1412   -1.5374 C   0  0  0  0  0  0  0  0  0  0  0  0
    5.0139    0.1953   -2.8148 N   0  0  0  0  0  0  0  0  0  0  0  0
    5.0420   -0.9633   -3.7051 C   0  0  0  0  0  0  0  0  0  0  0  0
    6.4879   -1.3704   -4.0450 C   0  0  2  0  0  0  0  0  0  0  0  0
    6.4438   -2.4902   -5.1241 C   0  0  0  0  0  0  0  0  0  0  0  0
    5.8450   -2.3813   -6.1858 O   0  0  0  0  0  0  0  0  0  0  0  0
    7.2160   -3.5826   -4.6879 N   0  0  0  0  0  0  0  0  0  0  0  0
    7.5156   -4.8234   -5.3834 C   0  0  0  0  0  0  0  0  0  0  0  0
    6.9886   -5.0489   -6.6616 C   0  0  0  0  0  0  0  0  0  0  0  0
    7.2206   -6.1481   -7.4227 N   0  0  0  0  0  0  0  0  0  0  0  0
    8.0472   -7.0779   -6.9092 C   0  0  0  0  0  0  0  0  0  0  0  0
    8.6644   -6.9968   -5.6649 C   0  0  0  0  0  0  0  0  0  0  0  0
    9.5512   -8.0217   -5.2617 C   0  0  0  0  0  0  0  0  0  0  0  0
   10.1964   -7.9924   -4.0302 C   0  0  0  0  0  0  0  0  0  0  0  0
    9.9270   -6.9645   -3.1710 C   0  0  0  0  0  0  0  0  0  0  0  0
    9.0318   -5.9543   -3.5595 C   0  0  0  0  0  0  0  0  0  0  0  0
    8.3853   -5.8747   -4.8418 C   0  0  0  0  0  0  0  0  0  0  0  0
    7.7176   -3.3491   -3.3801 C   0  0  0  0  0  0  0  0  0  0  0  0
    7.2809   -1.9968   -2.8738 C   0  0  2  0  0  0  0  0  0  0  0  0
    6.6171   -2.1963   -1.5127 C   0  0  0  0  0  0  0  0  0  0  0  0
    7.2529   -0.1144   -4.5154 C   0  0  0  0  0  0  0  0  0  0  0  0
    8.4702   -0.2274   -5.2184 C   0  0  0  0  0  0  0  0  0  0  0  0
    9.2369    0.9033   -5.5144 C   0  0  0  0  0  0  0  0  0  0  0  0
    8.7879    2.1680   -5.1482 C   0  0  0  0  0  0  0  0  0  0  0  0
    7.5867    2.3032   -4.4612 C   0  0  0  0  0  0  0  0  0  0  0  0
    7.2124    3.5388   -4.1071 F   0  0  0  0  0  0  0  0  0  0  0  0
    6.8275    1.1775   -4.1155 C   0  0  0  0  0  0  0  0  0  0  0  0
    5.6943    1.3499   -3.1634 C   0  0  0  0  0  0  0  0  0  0  0  0
    5.4375    2.4275   -2.6379 O   0  0  0  0  0  0  0  0  0  0  0  0
    1.7016    3.7546   -2.1443 H   0  0  0  0  0  0  0  0  0  0  0  0
    1.1946    2.7010   -0.7875 H   0  0  0  0  0  0  0  0  0  0  0  0
    0.7910    2.2430   -2.4630 H   0  0  0  0  0  0  0  0  0  0  0  0
    3.6268    2.4870   -2.2224 H   0  0  0  0  0  0  0  0  0  0  0  0
    4.2566   -0.8931   -1.1863 H   0  0  0  0  0  0  0  0  0  0  0  0
    4.8770    0.7103   -0.7983 H   0  0  0  0  0  0  0  0  0  0  0  0
    4.5041   -0.6618   -4.6144 H   0  0  0  0  0  0  0  0  0  0  0  0
    4.4697   -1.7906   -3.2719 H   0  0  0  0  0  0  0  0  0  0  0  0
    6.3357   -4.3421   -7.1617 H   0  0  0  0  0  0  0  0  0  0  0  0
    8.2092   -7.9350   -7.5585 H   0  0  0  0  0  0  0  0  0  0  0  0
    9.7578   -8.8581   -5.9260 H   0  0  0  0  0  0  0  0  0  0  0  0
   10.8963   -8.7727   -3.7484 H   0  0  0  0  0  0  0  0  0  0  0  0
   10.3876   -6.9163   -2.1847 H   0  0  0  0  0  0  0  0  0  0  0  0
    8.8756   -5.2390   -2.7717 H   0  0  0  0  0  0  0  0  0  0  0  0
    8.8112   -3.3564   -3.4168 H   0  0  0  0  0  0  0  0  0  0  0  0
    7.2938   -4.1303   -2.7414 H   0  0  0  0  0  0  0  0  0  0  0  0
    8.1903   -1.4158   -2.6635 H   0  0  0  0  0  0  0  0  0  0  0  0
    5.6479   -2.6969   -1.5952 H   0  0  0  0  0  0  0  0  0  0  0  0
    6.5106   -1.2470   -0.9872 H   0  0  0  0  0  0  0  0  0  0  0  0
    7.2456   -2.8291   -0.8739 H   0  0  0  0  0  0  0  0  0  0  0  0
    8.8640   -1.2008   -5.5070 H   0  0  0  0  0  0  0  0  0  0  0  0
   10.1958    0.7963   -6.0177 H   0  0  0  0  0  0  0  0  0  0  0  0
    9.3780    3.0537   -5.3659 H   0  0  0  0  0  0  0  0  0  0  0  0
  1  2  1  0  0  0  0
  1 34  1  0  0  0  0
  1 35  1  0  0  0  0
  1 36  1  0  0  0  0
  2  3  1  0  0  0  0
  2 37  1  0  0  0  0
  3  4  2  0  0  0  0
  3  5  1  0  0  0  0
  5  6  1  0  0  0  0
  5 38  1  0  0  0  0
  5 39  1  0  0  0  0
  6  7  1  0  0  0  0
  6 32  1  0  0  0  0
  7  8  1  0  0  0  0
  7 40  1  0  0  0  0
  7 41  1  0  0  0  0
  8  9  1  6  0  0  0
  8 23  1  0  0  0  0
  8 25  1  0  0  0  0
  9 10  2  0  0  0  0
  9 11  1  0  0  0  0
 11 12  1  0  0  0  0
 11 22  1  0  0  0  0
 12 13  1  0  0  0  0
 12 21  2  0  0  0  0
 13 14  2  0  0  0  0
 13 42  1  0  0  0  0
 14 15  1  0  0  0  0
 15 16  2  0  0  0  0
 15 43  1  0  0  0  0
 16 17  1  0  0  0  0
 16 21  1  0  0  0  0
 17 18  2  0  0  0  0
 17 44  1  0  0  0  0
 18 19  1  0  0  0  0
 18 45  1  0  0  0  0
 19 20  2  0  0  0  0
 19 46  1  0  0  0  0
 20 21  1  0  0  0  0
 20 47  1  0  0  0  0
 22 23  1  0  0  0  0
 22 48  1  0  0  0  0
 22 49  1  0  0  0  0
 23 24  1  0  0  0  0
 23 50  1  1  0  0  0
 24 51  1  0  0  0  0
 24 52  1  0  0  0  0
 24 53  1  0  0  0  0
 25 26  1  0  0  0  0
 25 31  2  0  0  0  0
 26 27  2  0  0  0  0
 26 54  1  0  0  0  0
 27 28  1  0  0  0  0
 27 55  1  0  0  0  0
 28 29  2  0  0  0  0
 28 56  1  0  0  0  0
 29 30  1  0  0  0  0
 29 31  1  0  0  0  0
 31 32  1  0  0  0  0
 32 33  2  0  0  0  0
M  END
$$$$
