
 OpenBabel07202414123D

 52 55  0  0  0  0  0  0  0  0999 V2000
    2.7103    0.1707    2.0924 C   0  0  0  0  0  0  0  0  0  0  0  0
    2.3327   -1.1481    1.4164 C   0  0  0  0  0  0  0  0  0  0  0  0
    0.8079   -1.2432    1.3081 C   0  0  0  0  0  0  0  0  0  0  0  0
    2.9663   -1.2942    0.0196 C   0  0  0  0  0  0  0  0  0  0  0  0
    4.4336   -1.3620    0.0434 N   0  0  0  0  0  0  0  0  0  0  0  0
    5.0320   -2.5973    0.1845 C   0  0  0  0  0  0  0  0  0  0  0  0
    6.3598   -2.8133    0.1182 C   0  0  0  0  0  0  0  0  0  0  0  0
    7.2405   -1.6210    0.0022 C   0  0  0  0  0  0  0  0  0  0  0  0
    8.6451   -1.6871   -0.0381 C   0  0  0  0  0  0  0  0  0  0  0  0
    9.4241   -0.5242   -0.1293 C   0  0  0  0  0  0  0  0  0  0  0  0
    8.8198    0.7281   -0.1737 C   0  0  0  0  0  0  0  0  0  0  0  0
    7.4328    0.8190   -0.1642 C   0  0  0  0  0  0  0  0  0  0  0  0
    6.6517   -0.3457   -0.0975 C   0  0  0  0  0  0  0  0  0  0  0  0
    5.1723   -0.2025   -0.1590 C   0  0  0  0  0  0  0  0  0  0  0  0
    4.6755    0.8991   -0.3755 O   0  0  0  0  0  0  0  0  0  0  0  0
    6.8982   -4.0936    0.1490 N   0  0  0  0  0  0  0  0  0  0  0  0
    6.2172   -5.2441   -0.1963 C   0  0  0  0  0  0  0  0  0  0  0  0
    5.0470   -5.2903   -0.5642 O   0  0  0  0  0  0  0  0  0  0  0  0
    6.9627   -6.3843   -0.1007 N   0  0  0  0  0  0  0  0  0  0  0  0
    6.3304   -7.6080   -0.5645 C   0  0  0  0  0  0  0  0  0  0  0  0
    7.1707   -8.8142   -0.2702 C   0  0  0  0  0  0  0  0  0  0  0  0
    7.5816   -9.6785   -1.3127 C   0  0  0  0  0  0  0  0  0  0  0  0
    8.4570  -10.7378   -1.0605 C   0  0  0  0  0  0  0  0  0  0  0  0
    8.9175  -10.8810    0.2286 C   0  0  0  0  0  0  0  0  0  0  0  0
    8.4700  -10.0810    1.2567 C   0  0  0  0  0  0  0  0  0  0  0  0
    7.5723   -9.0645    1.0495 C   0  0  0  0  0  0  0  0  0  0  0  0
    9.0863  -10.3626    2.4365 O   0  0  0  0  0  0  0  0  0  0  0  0
   10.1705  -11.1716    1.9418 C   0  0  0  0  0  0  0  0  0  0  0  0
    9.8888  -11.7402    0.6452 O   0  0  0  0  0  0  0  0  0  0  0  0
    2.2475    0.2448    3.0820 H   0  0  0  0  0  0  0  0  0  0  0  0
    2.3756    1.0287    1.4989 H   0  0  0  0  0  0  0  0  0  0  0  0
    3.7917    0.2532    2.2341 H   0  0  0  0  0  0  0  0  0  0  0  0
    2.6808   -1.9713    2.0531 H   0  0  0  0  0  0  0  0  0  0  0  0
    0.3947   -0.3869    0.7633 H   0  0  0  0  0  0  0  0  0  0  0  0
    0.3500   -1.2612    2.3030 H   0  0  0  0  0  0  0  0  0  0  0  0
    0.5041   -2.1556    0.7847 H   0  0  0  0  0  0  0  0  0  0  0  0
    2.6548   -0.4637   -0.6242 H   0  0  0  0  0  0  0  0  0  0  0  0
    2.5942   -2.2088   -0.4617 H   0  0  0  0  0  0  0  0  0  0  0  0
    4.3322   -3.4116    0.3392 H   0  0  0  0  0  0  0  0  0  0  0  0
    9.1749   -2.6335   -0.0114 H   0  0  0  0  0  0  0  0  0  0  0  0
   10.5091   -0.5973   -0.1672 H   0  0  0  0  0  0  0  0  0  0  0  0
    9.4225    1.6310   -0.2295 H   0  0  0  0  0  0  0  0  0  0  0  0
    6.9555    1.7961   -0.2135 H   0  0  0  0  0  0  0  0  0  0  0  0
    7.8890   -4.1919    0.2949 H   0  0  0  0  0  0  0  0  0  0  0  0
    7.9635   -6.3144   -0.2057 H   0  0  0  0  0  0  0  0  0  0  0  0
    6.1633   -7.4984   -1.6428 H   0  0  0  0  0  0  0  0  0  0  0  0
    5.3510   -7.7171   -0.0839 H   0  0  0  0  0  0  0  0  0  0  0  0
    7.2407   -9.5071   -2.3328 H   0  0  0  0  0  0  0  0  0  0  0  0
    8.8028  -11.3864   -1.8573 H   0  0  0  0  0  0  0  0  0  0  0  0
    7.2459   -8.4361    1.8716 H   0  0  0  0  0  0  0  0  0  0  0  0
   10.3898  -11.9700    2.6558 H   0  0  0  0  0  0  0  0  0  0  0  0
   11.0563  -10.5263    1.8525 H   0  0  0  0  0  0  0  0  0  0  0  0
  1  2  1  0  0  0  0
  1 30  1  0  0  0  0
  1 31  1  0  0  0  0
  1 32  1  0  0  0  0
  2  3  1  0  0  0  0
  2  4  1  0  0  0  0
  2 33  1  0  0  0  0
  3 34  1  0  0  0  0
  3 35  1  0  0  0  0
  3 36  1  0  0  0  0
  4  5  1  0  0  0  0
  4 37  1  0  0  0  0
  4 38  1  0  0  0  0
  5  6  1  0  0  0  0
  5 14  1  0  0  0  0
  6  7  2  0  0  0  0
  6 39  1  0  0  0  0
  7  8  1  0  0  0  0
  7 16  1  0  0  0  0
  8  9  1  0  0  0  0
  8 13  2  0  0  0  0
  9 10  2  0  0  0  0
  9 40  1  0  0  0  0
 10 11  1  0  0  0  0
 10 41  1  0  0  0  0
 11 12  2  0  0  0  0
 11 42  1  0  0  0  0
 12 13  1  0  0  0  0
 12 43  1  0  0  0  0
 13 14  1  0  0  0  0
 14 15  2  0  0  0  0
 16 17  1  0  0  0  0
 16 44  1  0  0  0  0
 17 18  2  0  0  0  0
 17 19  1  0  0  0  0
 19 20  1  0  0  0  0
 19 45  1  0  0  0  0
 20 21  1  0  0  0  0
 20 46  1  0  0  0  0
 20 47  1  0  0  0  0
 21 22  1  0  0  0  0
 21 26  2  0  0  0  0
 22 23  2  0  0  0  0
 22 48  1  0  0  0  0
 23 24  1  0  0  0  0
 23 49  1  0  0  0  0
 24 25  2  0  0  0  0
 24 29  1  0  0  0  0
 25 26  1  0  0  0  0
 25 27  1  0  0  0  0
 26 50  1  0  0  0  0
 27 28  1  0  0  0  0
 28 29  1  0  0  0  0
 28 51  1  0  0  0  0
 28 52  1  0  0  0  0
M  END
$$$$
