
 OpenBabel07202414173D

 56 60  0  0  1  0  0  0  0  0999 V2000
    0.8741   -0.1223    0.0878 Cl  0  0  0  0  0  0  0  0  0  0  0  0
    2.5894   -0.1796   -0.0273 C   0  0  0  0  0  0  0  0  0  0  0  0
    3.3134    1.0057    0.0114 C   0  0  0  0  0  0  0  0  0  0  0  0
    4.7011    0.9594   -0.0483 C   0  0  0  0  0  0  0  0  0  0  0  0
    5.3708   -0.2719   -0.1520 C   0  0  0  0  0  0  0  0  0  0  0  0
    4.6426   -1.4714   -0.2521 C   0  0  0  0  0  0  0  0  0  0  0  0
    3.2417   -1.4109   -0.1528 C   0  0  0  0  0  0  0  0  0  0  0  0
    5.3689   -2.8093   -0.3991 C   0  0  1  0  0  0  0  0  0  0  0  0
    4.7639   -3.7090   -1.5059 C   0  0  0  0  0  0  0  0  0  0  0  0
    4.2929   -3.2323   -2.5345 O   0  0  0  0  0  0  0  0  0  0  0  0
    4.8358   -5.0691   -1.2272 N   0  0  0  0  0  0  0  0  0  0  0  0
    4.2296   -6.1418   -1.9547 C   0  0  0  0  0  0  0  0  0  0  0  0
    3.3983   -5.9429   -3.0598 C   0  0  0  0  0  0  0  0  0  0  0  0
    2.6650   -6.9141   -3.6601 N   0  0  0  0  0  0  0  0  0  0  0  0
    2.8014   -8.1643   -3.1760 C   0  0  0  0  0  0  0  0  0  0  0  0
    3.6862   -8.5201   -2.1625 C   0  0  0  0  0  0  0  0  0  0  0  0
    3.8568   -9.8691   -1.8001 C   0  0  0  0  0  0  0  0  0  0  0  0
    4.7604  -10.2294   -0.8087 C   0  0  0  0  0  0  0  0  0  0  0  0
    5.4874   -9.2440   -0.1512 C   0  0  0  0  0  0  0  0  0  0  0  0
    5.3154   -7.8999   -0.4983 C   0  0  0  0  0  0  0  0  0  0  0  0
    4.4207   -7.4910   -1.5202 C   0  0  0  0  0  0  0  0  0  0  0  0
    6.8786   -2.6456   -0.6951 C   0  0  0  0  0  0  0  0  0  0  0  0
    7.5020   -1.5572    0.1489 N   0  0  0  0  0  0  0  0  0  0  0  0
    9.2094   -1.5118    0.0429 S   0  0  0  0  0  0  0  0  0  0  0  0
    9.7025   -2.8145    0.4336 O   0  0  0  0  0  0  0  0  0  0  0  0
    9.5522   -0.9364   -1.2344 O   0  0  0  0  0  0  0  0  0  0  0  0
    9.6858   -0.3338    1.3307 C   0  0  0  0  0  0  0  0  0  0  0  0
   11.1913   -0.0721    1.3025 C   0  0  0  0  0  0  0  0  0  0  0  0
   11.6779    0.9593    2.3636 C   0  0  0  0  0  0  0  0  0  0  0  0
   12.9183    1.5432    1.2415 S   0  0  0  0  0  0  0  0  0  0  0  0
   12.9172    2.9872    1.1621 O   0  0  0  0  0  0  0  0  0  0  0  0
   14.1252    0.7522    1.3295 O   0  0  0  0  0  0  0  0  0  0  0  0
   11.7297    0.8217    0.1443 C   0  0  0  0  0  0  0  0  0  0  0  0
    6.8746   -0.2530   -0.1879 C   0  0  0  0  0  0  0  0  0  0  0  0
    2.8083    1.9654    0.0937 H   0  0  0  0  0  0  0  0  0  0  0  0
    5.2642    1.8914   -0.0073 H   0  0  0  0  0  0  0  0  0  0  0  0
    2.6439   -2.3196   -0.1874 H   0  0  0  0  0  0  0  0  0  0  0  0
    5.2563   -3.3175    0.5687 H   0  0  0  0  0  0  0  0  0  0  0  0
    5.2798   -5.3320   -0.3598 H   0  0  0  0  0  0  0  0  0  0  0  0
    3.2591   -4.9717   -3.5221 H   0  0  0  0  0  0  0  0  0  0  0  0
    2.1607   -8.9029   -3.6535 H   0  0  0  0  0  0  0  0  0  0  0  0
    3.3036  -10.6553   -2.3134 H   0  0  0  0  0  0  0  0  0  0  0  0
    4.9125  -11.2774   -0.5575 H   0  0  0  0  0  0  0  0  0  0  0  0
    6.2030   -9.5207    0.6192 H   0  0  0  0  0  0  0  0  0  0  0  0
    5.9370   -7.1811    0.0288 H   0  0  0  0  0  0  0  0  0  0  0  0
    7.0457   -2.4179   -1.7558 H   0  0  0  0  0  0  0  0  0  0  0  0
    7.3741   -3.6006   -0.4812 H   0  0  0  0  0  0  0  0  0  0  0  0
    9.3807   -0.7609    2.2898 H   0  0  0  0  0  0  0  0  0  0  0  0
    9.1536    0.6049    1.1623 H   0  0  0  0  0  0  0  0  0  0  0  0
   11.7518   -1.0146    1.3889 H   0  0  0  0  0  0  0  0  0  0  0  0
   12.0875    0.5275    3.2807 H   0  0  0  0  0  0  0  0  0  0  0  0
   10.9640    1.7479    2.6225 H   0  0  0  0  0  0  0  0  0  0  0  0
   12.1834    0.2828   -0.6919 H   0  0  0  0  0  0  0  0  0  0  0  0
   11.0303    1.5714   -0.2384 H   0  0  0  0  0  0  0  0  0  0  0  0
    7.1926    0.0876   -1.1791 H   0  0  0  0  0  0  0  0  0  0  0  0
    7.1902    0.4773    0.5631 H   0  0  0  0  0  0  0  0  0  0  0  0
  1  2  1  0  0  0  0
  2  3  1  0  0  0  0
  2  7  2  0  0  0  0
  3  4  2  0  0  0  0
  3 35  1  0  0  0  0
  4  5  1  0  0  0  0
  4 36  1  0  0  0  0
  5  6  2  0  0  0  0
  5 34  1  0  0  0  0
  6  7  1  0  0  0  0
  6  8  1  0  0  0  0
  7 37  1  0  0  0  0
  8 22  1  0  0  0  0
  8  9  1  0  0  0  0
  8 38  1  1  0  0  0
  9 10  2  0  0  0  0
  9 11  1  0  0  0  0
 11 12  1  0  0  0  0
 11 39  1  0  0  0  0
 12 13  1  0  0  0  0
 12 21  2  0  0  0  0
 13 14  2  0  0  0  0
 13 40  1  0  0  0  0
 14 15  1  0  0  0  0
 15 16  2  0  0  0  0
 15 41  1  0  0  0  0
 16 17  1  0  0  0  0
 16 21  1  0  0  0  0
 17 18  2  0  0  0  0
 17 42  1  0  0  0  0
 18 19  1  0  0  0  0
 18 43  1  0  0  0  0
 19 20  2  0  0  0  0
 19 44  1  0  0  0  0
 20 21  1  0  0  0  0
 20 45  1  0  0  0  0
 22 23  1  0  0  0  0
 22 46  1  0  0  0  0
 22 47  1  0  0  0  0
 23 24  1  0  0  0  0
 23 34  1  0  0  0  0
 24 25  2  0  0  0  0
 24 26  2  0  0  0  0
 24 27  1  0  0  0  0
 27 28  1  0  0  0  0
 27 48  1  0  0  0  0
 27 49  1  0  0  0  0
 28 29  1  0  0  0  0
 28 33  1  0  0  0  0
 28 50  1  0  0  0  0
 29 30  1  0  0  0  0
 29 51  1  0  0  0  0
 29 52  1  0  0  0  0
 30 31  2  0  0  0  0
 30 32  2  0  0  0  0
 30 33  1  0  0  0  0
 33 53  1  0  0  0  0
 33 54  1  0  0  0  0
 34 55  1  0  0  0  0
 34 56  1  0  0  0  0
M  END
$$$$
