
 OpenBabel07202414203D

 26 27  0  0  0  0  0  0  0  0999 V2000
   -3.3327   -0.0053    0.2533 O   0  0  0  0  0  0  0  0  0  0  0  0
   -1.9721   -0.0071    0.1004 C   0  0  0  0  0  0  0  0  0  0  0  0
   -1.2850    1.2137    0.1333 C   0  0  0  0  0  0  0  0  0  0  0  0
    0.1031    1.2433   -0.0235 C   0  0  0  0  0  0  0  0  0  0  0  0
    0.8023    0.0565   -0.2121 C   0  0  0  0  0  0  0  0  0  0  0  0
    2.5105    0.0871   -0.4096 Cl  0  0  0  0  0  0  0  0  0  0  0  0
    0.1255   -1.1580   -0.2407 C   0  0  0  0  0  0  0  0  0  0  0  0
   -1.2732   -1.2078   -0.0834 C   0  0  0  0  0  0  0  0  0  0  0  0
   -1.8866   -2.5717   -0.0993 C   0  0  0  0  0  0  0  0  0  0  0  0
   -1.1250   -3.5343   -0.1358 O   0  0  0  0  0  0  0  0  0  0  0  0
   -3.2632   -2.6693   -0.1108 N   0  0  0  0  0  0  0  0  0  0  0  0
   -3.9972   -3.8847   -0.0917 C   0  0  0  0  0  0  0  0  0  0  0  0
   -3.4352   -5.1204    0.2229 C   0  0  0  0  0  0  0  0  0  0  0  0
   -4.1152   -6.2971    0.2436 N   0  0  0  0  0  0  0  0  0  0  0  0
   -5.4217   -6.2552   -0.0688 C   0  0  0  0  0  0  0  0  0  0  0  0
   -6.0900   -5.0886   -0.3852 C   0  0  0  0  0  0  0  0  0  0  0  0
   -5.3649   -3.8977   -0.3837 C   0  0  0  0  0  0  0  0  0  0  0  0
   -6.2053   -2.4389   -0.7967 Cl  0  0  0  0  0  0  0  0  0  0  0  0
   -3.6298    0.9023    0.4500 H   0  0  0  0  0  0  0  0  0  0  0  0
   -1.8098    2.1544    0.2810 H   0  0  0  0  0  0  0  0  0  0  0  0
    0.6344    2.1916    0.0025 H   0  0  0  0  0  0  0  0  0  0  0  0
    0.6909   -2.0776   -0.3831 H   0  0  0  0  0  0  0  0  0  0  0  0
   -3.7949   -1.8050   -0.2073 H   0  0  0  0  0  0  0  0  0  0  0  0
   -2.3949   -5.2312    0.5074 H   0  0  0  0  0  0  0  0  0  0  0  0
   -5.9295   -7.2157   -0.0564 H   0  0  0  0  0  0  0  0  0  0  0  0
   -7.1450   -5.1165   -0.6323 H   0  0  0  0  0  0  0  0  0  0  0  0
  1  2  1  0  0  0  0
  1 19  1  0  0  0  0
  2  3  1  0  0  0  0
  2  8  2  0  0  0  0
  3  4  2  0  0  0  0
  3 20  1  0  0  0  0
  4  5  1  0  0  0  0
  4 21  1  0  0  0  0
  5  6  1  0  0  0  0
  5  7  2  0  0  0  0
  7  8  1  0  0  0  0
  7 22  1  0  0  0  0
  8  9  1  0  0  0  0
  9 10  2  0  0  0  0
  9 11  1  0  0  0  0
 11 12  1  0  0  0  0
 11 23  1  0  0  0  0
 12 13  1  0  0  0  0
 12 17  2  0  0  0  0
 13 14  2  0  0  0  0
 13 24  1  0  0  0  0
 14 15  1  0  0  0  0
 15 16  2  0  0  0  0
 15 25  1  0  0  0  0
 16 17  1  0  0  0  0
 16 26  1  0  0  0  0
 17 18  1  0  0  0  0
M  END
$$$$
