
 OpenBabel07202414133D

 37 38  0  0  1  0  0  0  0  0999 V2000
    0.9840   -0.1073    0.0831 C   0  0  0  0  0  0  0  0  0  0  0  0
    2.5101   -0.1509   -0.0405 C   0  0  3  0  0  0  0  0  0  0  0  0
    3.0504    0.9182   -1.0271 C   0  0  0  0  0  0  0  0  0  0  0  0
    2.6834    0.6400   -2.4351 N   0  0  0  0  0  0  0  0  0  0  0  0
    3.2692    1.6340   -3.3531 C   0  0  0  0  0  0  0  0  0  0  0  0
    2.8035    3.0563   -3.1212 C   0  0  0  0  0  0  0  0  0  0  0  0
    1.4477    3.3992   -3.2359 C   0  0  0  0  0  0  0  0  0  0  0  0
    1.0323    4.7238   -3.0782 C   0  0  0  0  0  0  0  0  0  0  0  0
    1.9672    5.7204   -2.7960 C   0  0  0  0  0  0  0  0  0  0  0  0
    3.3106    5.3839   -2.6580 C   0  0  0  0  0  0  0  0  0  0  0  0
    4.4650    6.6090   -2.2924 Cl  0  0  0  0  0  0  0  0  0  0  0  0
    3.7327    4.0646   -2.8194 C   0  0  0  0  0  0  0  0  0  0  0  0
    3.1732   -0.7138   -2.8080 C   0  0  0  0  0  0  0  0  0  0  0  0
    2.6852   -1.8228   -1.8551 C   0  0  0  0  0  0  0  0  0  0  0  0
    2.9730   -1.4914   -0.4540 N   0  0  0  0  0  0  0  0  0  0  0  0
    3.8378   -2.3049    0.2673 C   0  0  0  0  0  0  0  0  0  0  0  0
    4.3502   -3.3130   -0.2297 O   0  0  0  0  0  0  0  0  0  0  0  0
    4.1375   -1.9492    1.7120 C   0  0  0  0  0  0  0  0  0  0  0  0
    5.5157   -0.8318    1.7677 Cl  0  0  0  0  0  0  0  0  0  0  0  0
    0.6573    0.8659    0.4625 H   0  0  0  0  0  0  0  0  0  0  0  0
    0.6335   -0.8777    0.7793 H   0  0  0  0  0  0  0  0  0  0  0  0
    0.4804   -0.2754   -0.8740 H   0  0  0  0  0  0  0  0  0  0  0  0
    2.9126    0.0999    0.9421 H   0  0  0  0  0  0  0  0  0  0  0  0
    4.1437    0.9624   -0.9303 H   0  0  0  0  0  0  0  0  0  0  0  0
    2.6559    1.8919   -0.7142 H   0  0  0  0  0  0  0  0  0  0  0  0
    2.9921    1.3800   -4.3852 H   0  0  0  0  0  0  0  0  0  0  0  0
    4.3661    1.5940   -3.3116 H   0  0  0  0  0  0  0  0  0  0  0  0
    0.7098    2.6269   -3.4541 H   0  0  0  0  0  0  0  0  0  0  0  0
   -0.0192    4.9791   -3.1806 H   0  0  0  0  0  0  0  0  0  0  0  0
    1.6422    6.7497   -2.6845 H   0  0  0  0  0  0  0  0  0  0  0  0
    4.7877    3.8220   -2.7155 H   0  0  0  0  0  0  0  0  0  0  0  0
    4.2715   -0.7258   -2.8198 H   0  0  0  0  0  0  0  0  0  0  0  0
    2.8311   -0.9584   -3.8212 H   0  0  0  0  0  0  0  0  0  0  0  0
    3.1418   -2.7748   -2.1418 H   0  0  0  0  0  0  0  0  0  0  0  0
    1.6000   -1.9507   -1.9498 H   0  0  0  0  0  0  0  0  0  0  0  0
    4.4089   -2.8592    2.2567 H   0  0  0  0  0  0  0  0  0  0  0  0
    3.2757   -1.5102    2.2184 H   0  0  0  0  0  0  0  0  0  0  0  0
  1  2  1  0  0  0  0
  1 20  1  0  0  0  0
  1 21  1  0  0  0  0
  1 22  1  0  0  0  0
  2  3  1  0  0  0  0
  2 15  1  0  0  0  0
  2 23  1  0  0  0  0
  3  4  1  0  0  0  0
  3 24  1  0  0  0  0
  3 25  1  0  0  0  0
  4  5  1  0  0  0  0
  4 13  1  0  0  0  0
  5  6  1  0  0  0  0
  5 26  1  0  0  0  0
  5 27  1  0  0  0  0
  6  7  1  0  0  0  0
  6 12  2  0  0  0  0
  7  8  2  0  0  0  0
  7 28  1  0  0  0  0
  8  9  1  0  0  0  0
  8 29  1  0  0  0  0
  9 10  2  0  0  0  0
  9 30  1  0  0  0  0
 10 11  1  0  0  0  0
 10 12  1  0  0  0  0
 12 31  1  0  0  0  0
 13 14  1  0  0  0  0
 13 32  1  0  0  0  0
 13 33  1  0  0  0  0
 14 15  1  0  0  0  0
 14 34  1  0  0  0  0
 14 35  1  0  0  0  0
 15 16  1  0  0  0  0
 16 17  2  0  0  0  0
 16 18  1  0  0  0  0
 18 19  1  0  0  0  0
 18 36  1  0  0  0  0
 18 37  1  0  0  0  0
M  END
$$$$
