
 OpenBabel07202414133D

 66 66  0  0  1  0  0  0  0  0999 V2000
    6.2346    1.3588    9.5162 C   0  0  0  0  0  0  0  0  0  0  0  0
    6.8076   -0.0409    9.6403 C   0  0  0  0  0  0  0  0  0  0  0  0
    5.5453   -1.3191    9.9853 P   0  0  0  0  0  0  0  0  0  0  0  0
    4.2032   -0.7778    8.3618 Au  0  0  0  0  0  0  0  0  0  0  0  0
    2.7160   -0.1779    6.5628 S   0  0  0  0  0  0  0  0  0  0  0  0
    1.3058   -1.2664    6.1752 C   0  0  1  0  0  0  0  0  0  0  0  0
    1.6844   -2.6934    5.7299 C   0  0  1  0  0  0  0  0  0  0  0  0
    0.3772   -3.4368    5.3901 C   0  0  2  0  0  0  0  0  0  0  0  0
   -0.6611   -3.3051    6.5206 C   0  0  1  0  0  0  0  0  0  0  0  0
   -0.8602   -1.8041    6.8218 C   0  0  2  0  0  0  0  0  0  0  0  0
    0.3779   -1.2498    7.2451 O   0  0  0  0  0  0  0  0  0  0  0  0
   -1.9013   -1.6040    7.9322 C   0  0  0  0  0  0  0  0  0  0  0  0
   -2.0930   -0.2541    8.1611 O   0  0  0  0  0  0  0  0  0  0  0  0
   -3.2909    0.3962    8.0418 C   0  0  0  0  0  0  0  0  0  0  0  0
   -4.3060   -0.1948    7.6985 O   0  0  0  0  0  0  0  0  0  0  0  0
   -3.3607    1.8638    8.3405 C   0  0  0  0  0  0  0  0  0  0  0  0
   -1.8499   -3.9036    6.1452 O   0  0  0  0  0  0  0  0  0  0  0  0
   -2.4155   -4.9691    6.7971 C   0  0  0  0  0  0  0  0  0  0  0  0
   -1.8788   -5.4605    7.7731 O   0  0  0  0  0  0  0  0  0  0  0  0
   -3.6851   -5.5700    6.2915 C   0  0  0  0  0  0  0  0  0  0  0  0
    0.6074   -4.7694    5.0710 O   0  0  0  0  0  0  0  0  0  0  0  0
    1.0806   -5.7293    5.9073 C   0  0  0  0  0  0  0  0  0  0  0  0
    1.3921   -5.4819    7.0635 O   0  0  0  0  0  0  0  0  0  0  0  0
    1.1900   -7.1364    5.4180 C   0  0  0  0  0  0  0  0  0  0  0  0
    2.4596   -2.6566    4.5769 O   0  0  0  0  0  0  0  0  0  0  0  0
    3.7083   -3.1659    4.4291 C   0  0  0  0  0  0  0  0  0  0  0  0
    4.3408   -3.5784    5.3904 O   0  0  0  0  0  0  0  0  0  0  0  0
    4.3097   -3.2363    3.0552 C   0  0  0  0  0  0  0  0  0  0  0  0
    6.5912   -2.8133    9.6350 C   0  0  0  0  0  0  0  0  0  0  0  0
    7.5668   -3.1299   10.7783 C   0  0  0  0  0  0  0  0  0  0  0  0
    4.2771   -2.2711   10.9178 C   0  0  0  0  0  0  0  0  0  0  0  0
    3.0044   -1.5170   11.2210 C   0  0  0  0  0  0  0  0  0  0  0  0
    7.0335    2.0356    9.1389 H   0  0  0  0  0  0  0  0  0  0  0  0
    5.8747    1.7184   10.4967 H   0  0  0  0  0  0  0  0  0  0  0  0
    5.4083    1.3772    8.7723 H   0  0  0  0  0  0  0  0  0  0  0  0
    7.6496   -0.0868   10.3577 H   0  0  0  0  0  0  0  0  0  0  0  0
    7.2081   -0.2894    8.6283 H   0  0  0  0  0  0  0  0  0  0  0  0
    0.8489   -0.7532    5.2940 H   0  0  0  0  0  0  0  0  0  0  0  0
    2.2073   -3.1861    6.5724 H   0  0  0  0  0  0  0  0  0  0  0  0
   -0.0643   -2.9551    4.4821 H   0  0  0  0  0  0  0  0  0  0  0  0
   -0.2476   -3.7511    7.4531 H   0  0  0  0  0  0  0  0  0  0  0  0
   -1.2568   -1.2818    5.9168 H   0  0  0  0  0  0  0  0  0  0  0  0
   -1.5398   -2.0801    8.8698 H   0  0  0  0  0  0  0  0  0  0  0  0
   -2.8503   -2.1031    7.6409 H   0  0  0  0  0  0  0  0  0  0  0  0
   -2.3643    2.2533    8.6322 H   0  0  0  0  0  0  0  0  0  0  0  0
   -4.0743    2.0373    9.1742 H   0  0  0  0  0  0  0  0  0  0  0  0
   -3.7147    2.4121    7.4413 H   0  0  0  0  0  0  0  0  0  0  0  0
   -4.0469   -5.0298    5.3987 H   0  0  0  0  0  0  0  0  0  0  0  0
   -4.4526   -5.5215    7.0929 H   0  0  0  0  0  0  0  0  0  0  0  0
   -3.5063   -6.6371    6.0258 H   0  0  0  0  0  0  0  0  0  0  0  0
    0.8976   -7.2016    4.3473 H   0  0  0  0  0  0  0  0  0  0  0  0
    0.5155   -7.7837    6.0155 H   0  0  0  0  0  0  0  0  0  0  0  0
    2.2358   -7.4870    5.5320 H   0  0  0  0  0  0  0  0  0  0  0  0
    4.3538   -2.2224    2.6062 H   0  0  0  0  0  0  0  0  0  0  0  0
    3.6855   -3.8884    2.4078 H   0  0  0  0  0  0  0  0  0  0  0  0
    5.3381   -3.6584    3.0917 H   0  0  0  0  0  0  0  0  0  0  0  0
    7.1670   -2.7148    8.6905 H   0  0  0  0  0  0  0  0  0  0  0  0
    5.9292   -3.6914    9.5015 H   0  0  0  0  0  0  0  0  0  0  0  0
    7.8911   -4.1917   10.7062 H   0  0  0  0  0  0  0  0  0  0  0  0
    8.4751   -2.4942   10.7125 H   0  0  0  0  0  0  0  0  0  0  0  0
    7.0987   -2.9880   11.7748 H   0  0  0  0  0  0  0  0  0  0  0  0
    4.7009   -2.7491   11.8218 H   0  0  0  0  0  0  0  0  0  0  0  0
    3.9530   -3.0895   10.2278 H   0  0  0  0  0  0  0  0  0  0  0  0
    3.2007   -0.7285   11.9667 H   0  0  0  0  0  0  0  0  0  0  0  0
    2.2648   -2.2451   11.6272 H   0  0  0  0  0  0  0  0  0  0  0  0
    2.5750   -1.0900   10.2893 H   0  0  0  0  0  0  0  0  0  0  0  0
  1  2  1  0  0  0  0
  1 33  1  0  0  0  0
  1 34  1  0  0  0  0
  1 35  1  0  0  0  0
  2  3  1  0  0  0  0
  2 36  1  0  0  0  0
  2 37  1  0  0  0  0
  3  4  2  0  0  0  0
  3 29  1  0  0  0  0
  3 31  1  0  0  0  0
  4  5  1  0  0  0  0
  6  7  1  0  0  0  0
  6 11  1  0  0  0  0
  6  5  1  0  0  0  0
  6 38  1  6  0  0  0
  7  8  1  0  0  0  0
  7 25  1  0  0  0  0
  7 39  1  1  0  0  0
  8  9  1  0  0  0  0
  8 21  1  0  0  0  0
  8 40  1  6  0  0  0
  9 10  1  0  0  0  0
  9 17  1  0  0  0  0
  9 41  1  1  0  0  0
 10 11  1  0  0  0  0
 10 12  1  0  0  0  0
 10 42  1  6  0  0  0
 12 13  1  0  0  0  0
 12 43  1  0  0  0  0
 12 44  1  0  0  0  0
 13 14  1  0  0  0  0
 14 15  2  0  0  0  0
 14 16  1  0  0  0  0
 16 45  1  0  0  0  0
 16 46  1  0  0  0  0
 16 47  1  0  0  0  0
 17 18  1  0  0  0  0
 18 19  2  0  0  0  0
 18 20  1  0  0  0  0
 20 48  1  0  0  0  0
 20 49  1  0  0  0  0
 20 50  1  0  0  0  0
 21 22  1  0  0  0  0
 22 23  2  0  0  0  0
 22 24  1  0  0  0  0
 24 51  1  0  0  0  0
 24 52  1  0  0  0  0
 24 53  1  0  0  0  0
 25 26  1  0  0  0  0
 26 27  2  0  0  0  0
 26 28  1  0  0  0  0
 28 54  1  0  0  0  0
 28 55  1  0  0  0  0
 28 56  1  0  0  0  0
 29 30  1  0  0  0  0
 29 57  1  0  0  0  0
 29 58  1  0  0  0  0
 30 59  1  0  0  0  0
 30 60  1  0  0  0  0
 30 61  1  0  0  0  0
 31 32  1  0  0  0  0
 31 62  1  0  0  0  0
 31 63  1  0  0  0  0
 32 64  1  0  0  0  0
 32 65  1  0  0  0  0
 32 66  1  0  0  0  0
M  END
$$$$
