
 OpenBabel07202414133D

 64 69  0  0  1  0  0  0  0  0999 V2000
    1.3837   -0.4100   -0.8826 C   0  0  0  0  0  0  0  0  0  0  0  0
    2.3875    0.1029    0.1489 C   0  0  0  0  0  0  0  0  0  0  0  0
    2.8537   -0.9780    1.1481 C   0  0  2  0  0  0  0  0  0  0  0  0
    1.6779   -1.5109    1.9673 C   0  0  0  0  0  0  0  0  0  0  0  0
    1.9269   -1.2317    3.3549 N   0  0  0  0  0  0  0  0  0  0  0  0
    1.0505   -1.8685    4.2951 C   0  0  0  0  0  0  0  0  0  0  0  0
    1.5294   -2.8340    5.1804 C   0  0  0  0  0  0  0  0  0  0  0  0
    0.7555   -3.7904    5.7460 N   0  0  0  0  0  0  0  0  0  0  0  0
   -0.5738   -3.6818    5.5614 C   0  0  0  0  0  0  0  0  0  0  0  0
   -1.1874   -2.5909    4.9626 C   0  0  0  0  0  0  0  0  0  0  0  0
   -2.5773   -2.3952    5.0872 C   0  0  0  0  0  0  0  0  0  0  0  0
   -3.1945   -1.2988    4.4952 C   0  0  0  0  0  0  0  0  0  0  0  0
   -2.4347   -0.4279    3.7245 C   0  0  0  0  0  0  0  0  0  0  0  0
   -1.0486   -0.6098    3.6099 C   0  0  0  0  0  0  0  0  0  0  0  0
   -0.3705   -1.6779    4.2555 C   0  0  0  0  0  0  0  0  0  0  0  0
    3.3297   -1.0692    3.5332 C   0  0  0  0  0  0  0  0  0  0  0  0
    3.9260   -1.2611    4.5765 O   0  0  0  0  0  0  0  0  0  0  0  0
    3.9701   -0.5857    2.2047 C   0  0  2  0  0  0  0  0  0  0  0  0
    4.1592    0.9581    2.2776 C   0  0  0  0  0  0  0  0  0  0  0  0
    5.4614    1.4308    2.8389 N   0  0  0  0  0  0  0  0  0  0  0  0
    5.6653    1.3744    4.5278 S   0  0  0  0  0  0  0  0  0  0  0  0
    4.3899    1.7030    5.1228 O   0  0  0  0  0  0  0  0  0  0  0  0
    6.3972    0.1683    4.8301 O   0  0  0  0  0  0  0  0  0  0  0  0
    6.7510    2.7788    4.7955 C   0  0  0  0  0  0  0  0  0  0  0  0
    7.0863    2.8320    6.2699 C   0  0  0  0  0  0  0  0  0  0  0  0
    7.8049    1.6996    6.8119 C   0  0  0  0  0  0  0  0  0  0  0  0
    8.4350    0.8408    7.2765 N   0  0  0  0  0  0  0  0  0  0  0  0
    7.5869    4.1818    6.7796 C   0  0  0  0  0  0  0  0  0  0  0  0
    6.2539    3.6679    7.2298 C   0  0  0  0  0  0  0  0  0  0  0  0
    6.5906    0.9313    2.0302 C   0  0  0  0  0  0  0  0  0  0  0  0
    6.5290   -0.5558    1.7765 C   0  0  0  0  0  0  0  0  0  0  0  0
    7.7335   -1.2045    1.4332 C   0  0  0  0  0  0  0  0  0  0  0  0
    7.7572   -2.5740    1.2009 C   0  0  0  0  0  0  0  0  0  0  0  0
    6.5806   -3.3026    1.3136 C   0  0  0  0  0  0  0  0  0  0  0  0
    6.6047   -4.9949    0.9987 Cl  0  0  0  0  0  0  0  0  0  0  0  0
    5.3769   -2.6763    1.6575 C   0  0  0  0  0  0  0  0  0  0  0  0
    5.3151   -1.2862    1.8742 C   0  0  0  0  0  0  0  0  0  0  0  0
    1.1704    0.3750   -1.6158 H   0  0  0  0  0  0  0  0  0  0  0  0
    0.4313   -0.6949   -0.4282 H   0  0  0  0  0  0  0  0  0  0  0  0
    1.7804   -1.2770   -1.4206 H   0  0  0  0  0  0  0  0  0  0  0  0
    1.9352    0.9484    0.6809 H   0  0  0  0  0  0  0  0  0  0  0  0
    3.2535    0.4751   -0.4086 H   0  0  0  0  0  0  0  0  0  0  0  0
    3.2050   -1.8058    0.5185 H   0  0  0  0  0  0  0  0  0  0  0  0
    1.6368   -2.6031    1.8515 H   0  0  0  0  0  0  0  0  0  0  0  0
    0.7163   -1.1021    1.6654 H   0  0  0  0  0  0  0  0  0  0  0  0
    2.5822   -2.9341    5.4270 H   0  0  0  0  0  0  0  0  0  0  0  0
   -1.1533   -4.5243    5.9307 H   0  0  0  0  0  0  0  0  0  0  0  0
   -3.1753   -3.0639    5.7073 H   0  0  0  0  0  0  0  0  0  0  0  0
   -4.2559   -1.1197    4.6489 H   0  0  0  0  0  0  0  0  0  0  0  0
   -2.9169    0.4181    3.2401 H   0  0  0  0  0  0  0  0  0  0  0  0
   -0.4878    0.1378    3.0550 H   0  0  0  0  0  0  0  0  0  0  0  0
    3.3223    1.4623    2.7695 H   0  0  0  0  0  0  0  0  0  0  0  0
    4.1795    1.3706    1.2596 H   0  0  0  0  0  0  0  0  0  0  0  0
    6.2141    3.6716    4.4591 H   0  0  0  0  0  0  0  0  0  0  0  0
    7.6582    2.6455    4.2033 H   0  0  0  0  0  0  0  0  0  0  0  0
    7.5985    5.0325    6.1107 H   0  0  0  0  0  0  0  0  0  0  0  0
    8.4047    4.1867    7.4968 H   0  0  0  0  0  0  0  0  0  0  0  0
    5.3688    4.1785    6.8664 H   0  0  0  0  0  0  0  0  0  0  0  0
    6.1614    3.3364    8.2609 H   0  0  0  0  0  0  0  0  0  0  0  0
    7.5410    1.1950    2.5074 H   0  0  0  0  0  0  0  0  0  0  0  0
    6.5854    1.4530    1.0642 H   0  0  0  0  0  0  0  0  0  0  0  0
    8.6687   -0.6478    1.3644 H   0  0  0  0  0  0  0  0  0  0  0  0
    8.6950   -3.0632    0.9487 H   0  0  0  0  0  0  0  0  0  0  0  0
    4.4857   -3.2911    1.7536 H   0  0  0  0  0  0  0  0  0  0  0  0
  1  2  1  0  0  0  0
  1 38  1  0  0  0  0
  1 39  1  0  0  0  0
  1 40  1  0  0  0  0
  2  3  1  0  0  0  0
  2 41  1  0  0  0  0
  2 42  1  0  0  0  0
  3  4  1  0  0  0  0
  3 18  1  0  0  0  0
  3 43  1  6  0  0  0
  4  5  1  0  0  0  0
  4 44  1  0  0  0  0
  4 45  1  0  0  0  0
  5  6  1  0  0  0  0
  5 16  1  0  0  0  0
  6  7  1  0  0  0  0
  6 15  2  0  0  0  0
  7  8  2  0  0  0  0
  7 46  1  0  0  0  0
  8  9  1  0  0  0  0
  9 10  2  0  0  0  0
  9 47  1  0  0  0  0
 10 11  1  0  0  0  0
 10 15  1  0  0  0  0
 11 12  2  0  0  0  0
 11 48  1  0  0  0  0
 12 13  1  0  0  0  0
 12 49  1  0  0  0  0
 13 14  2  0  0  0  0
 13 50  1  0  0  0  0
 14 15  1  0  0  0  0
 14 51  1  0  0  0  0
 16 17  2  0  0  0  0
 18 16  1  1  0  0  0
 18 19  1  0  0  0  0
 18 37  1  0  0  0  0
 19 20  1  0  0  0  0
 19 52  1  0  0  0  0
 19 53  1  0  0  0  0
 20 21  1  0  0  0  0
 20 30  1  0  0  0  0
 21 22  2  0  0  0  0
 21 23  2  0  0  0  0
 21 24  1  0  0  0  0
 24 25  1  0  0  0  0
 24 54  1  0  0  0  0
 24 55  1  0  0  0  0
 25 26  1  0  0  0  0
 25 28  1  0  0  0  0
 25 29  1  0  0  0  0
 26 27  3  0  0  0  0
 28 29  1  0  0  0  0
 28 56  1  0  0  0  0
 28 57  1  0  0  0  0
 29 58  1  0  0  0  0
 29 59  1  0  0  0  0
 30 31  1  0  0  0  0
 30 60  1  0  0  0  0
 30 61  1  0  0  0  0
 31 32  1  0  0  0  0
 31 37  2  0  0  0  0
 32 33  2  0  0  0  0
 32 62  1  0  0  0  0
 33 34  1  0  0  0  0
 33 63  1  0  0  0  0
 34 35  1  0  0  0  0
 34 36  2  0  0  0  0
 36 37  1  0  0  0  0
 36 64  1  0  0  0  0
M  END
$$$$
