
 OpenBabel07202414173D

 51 53  0  0  1  0  0  0  0  0999 V2000
    0.9326   -0.2880   -0.1401 Cl  0  0  0  0  0  0  0  0  0  0  0  0
    2.6613   -0.4328   -0.5122 C   0  0  0  0  0  0  0  0  0  0  0  0
    3.2313    0.8410   -1.1165 C   0  0  0  0  0  0  0  0  0  0  0  0
    2.5272    1.8030   -1.4238 O   0  0  0  0  0  0  0  0  0  0  0  0
    4.6173    0.8678   -1.3015 N   0  0  0  0  0  0  0  0  0  0  0  0
    5.5324   -0.2706   -1.1291 C   0  0  0  0  0  0  0  0  0  0  0  0
    6.7152    0.0574   -0.1953 C   0  0  0  0  0  0  0  0  0  0  0  0
    7.3998    1.3529   -0.5378 N   0  0  0  0  0  0  0  0  0  0  0  0
    8.3776    1.3218   -1.9540 S   0  0  0  0  0  0  0  0  0  0  0  0
    7.6594    0.6572   -3.0149 O   0  0  0  0  0  0  0  0  0  0  0  0
    8.9251    2.6512   -2.1283 O   0  0  0  0  0  0  0  0  0  0  0  0
    9.7804    0.3293   -1.7110 C   0  0  0  0  0  0  0  0  0  0  0  0
   10.0765   -0.8609   -2.4538 C   0  0  0  0  0  0  0  0  0  0  0  0
   11.2809   -1.4215   -2.0802 C   0  0  0  0  0  0  0  0  0  0  0  0
   12.0603   -0.4998   -0.8652 S   0  0  0  0  0  0  0  0  0  0  0  0
   10.7950    0.6536   -0.8370 C   0  0  0  0  0  0  0  0  0  0  0  0
    6.3681    2.4839   -0.5724 C   0  0  2  0  0  0  0  0  0  0  0  0
    5.7219    2.7102    0.8122 C   0  0  0  0  0  0  0  0  0  0  0  0
    4.5057    2.6449    1.0005 O   0  0  0  0  0  0  0  0  0  0  0  0
    6.5738    2.9880    1.8627 N   0  0  0  0  0  0  0  0  0  0  0  0
    6.0304    3.1316    3.2154 C   0  0  0  0  0  0  0  0  0  0  0  0
    6.8853    4.0719    4.0680 C   0  0  0  0  0  0  0  0  0  0  0  0
    6.3088    4.2192    5.4769 C   0  0  0  0  0  0  0  0  0  0  0  0
    6.1384    2.8658    6.1606 C   0  0  0  0  0  0  0  0  0  0  0  0
    5.2934    1.9160    5.3172 C   0  0  0  0  0  0  0  0  0  0  0  0
    5.8514    1.7671    3.9009 C   0  0  0  0  0  0  0  0  0  0  0  0
    5.2528    2.1660   -1.5989 C   0  0  0  0  0  0  0  0  0  0  0  0
    2.7813   -1.2596   -1.2168 H   0  0  0  0  0  0  0  0  0  0  0  0
    3.1719   -0.6533    0.4297 H   0  0  0  0  0  0  0  0  0  0  0  0
    5.8756   -0.5555   -2.1258 H   0  0  0  0  0  0  0  0  0  0  0  0
    5.0095   -1.1461   -0.7383 H   0  0  0  0  0  0  0  0  0  0  0  0
    7.4435   -0.7609   -0.1741 H   0  0  0  0  0  0  0  0  0  0  0  0
    6.3383    0.1453    0.8341 H   0  0  0  0  0  0  0  0  0  0  0  0
    9.4550   -1.2706   -3.2430 H   0  0  0  0  0  0  0  0  0  0  0  0
   11.7524   -2.3110   -2.4762 H   0  0  0  0  0  0  0  0  0  0  0  0
   10.8669    1.5268   -0.2020 H   0  0  0  0  0  0  0  0  0  0  0  0
    6.8639    3.4252   -0.8357 H   0  0  0  0  0  0  0  0  0  0  0  0
    7.5688    2.8579    1.7256 H   0  0  0  0  0  0  0  0  0  0  0  0
    5.0356    3.5888    3.1236 H   0  0  0  0  0  0  0  0  0  0  0  0
    6.9360    5.0588    3.5930 H   0  0  0  0  0  0  0  0  0  0  0  0
    7.9137    3.6963    4.1277 H   0  0  0  0  0  0  0  0  0  0  0  0
    5.3351    4.7227    5.4233 H   0  0  0  0  0  0  0  0  0  0  0  0
    6.9637    4.8576    6.0798 H   0  0  0  0  0  0  0  0  0  0  0  0
    5.6695    3.0031    7.1423 H   0  0  0  0  0  0  0  0  0  0  0  0
    7.1241    2.4189    6.3372 H   0  0  0  0  0  0  0  0  0  0  0  0
    4.2641    2.2934    5.2667 H   0  0  0  0  0  0  0  0  0  0  0  0
    5.2466    0.9347    5.8034 H   0  0  0  0  0  0  0  0  0  0  0  0
    5.1759    1.1312    3.3159 H   0  0  0  0  0  0  0  0  0  0  0  0
    6.8142    1.2415    3.9423 H   0  0  0  0  0  0  0  0  0  0  0  0
    5.6455    2.1144   -2.6188 H   0  0  0  0  0  0  0  0  0  0  0  0
    4.5145    2.9753   -1.5942 H   0  0  0  0  0  0  0  0  0  0  0  0
  1  2  1  0  0  0  0
  2  3  1  0  0  0  0
  2 28  1  0  0  0  0
  2 29  1  0  0  0  0
  3  4  2  0  0  0  0
  3  5  1  0  0  0  0
  5  6  1  0  0  0  0
  5 27  1  0  0  0  0
  6  7  1  0  0  0  0
  6 30  1  0  0  0  0
  6 31  1  0  0  0  0
  7  8  1  0  0  0  0
  7 32  1  0  0  0  0
  7 33  1  0  0  0  0
  8  9  1  0  0  0  0
  8 17  1  0  0  0  0
  9 10  2  0  0  0  0
  9 11  2  0  0  0  0
  9 12  1  0  0  0  0
 12 13  1  0  0  0  0
 12 16  2  0  0  0  0
 13 14  2  0  0  0  0
 13 34  1  0  0  0  0
 14 15  1  0  0  0  0
 14 35  1  0  0  0  0
 15 16  1  0  0  0  0
 16 36  1  0  0  0  0
 17 27  1  0  0  0  0
 17 18  1  0  0  0  0
 17 37  1  6  0  0  0
 18 19  2  0  0  0  0
 18 20  1  0  0  0  0
 20 21  1  0  0  0  0
 20 38  1  0  0  0  0
 21 22  1  0  0  0  0
 21 26  1  0  0  0  0
 21 39  1  0  0  0  0
 22 23  1  0  0  0  0
 22 40  1  0  0  0  0
 22 41  1  0  0  0  0
 23 24  1  0  0  0  0
 23 42  1  0  0  0  0
 23 43  1  0  0  0  0
 24 25  1  0  0  0  0
 24 44  1  0  0  0  0
 24 45  1  0  0  0  0
 25 26  1  0  0  0  0
 25 46  1  0  0  0  0
 25 47  1  0  0  0  0
 26 48  1  0  0  0  0
 26 49  1  0  0  0  0
 27 50  1  0  0  0  0
 27 51  1  0  0  0  0
M  END
$$$$
