
 OpenBabel07202414193D

 26 28  0  0  0  0  0  0  0  0999 V2000
    2.7317    1.0490   -0.4152 O   0  0  0  0  0  0  0  0  0  0  0  0
    2.2164    0.0075   -0.0099 C   0  0  0  0  0  0  0  0  0  0  0  0
    0.8375   -0.3484   -0.3489 C   0  0  0  0  0  0  0  0  0  0  0  0
    0.1714   -0.1506   -1.5457 C   0  0  0  0  0  0  0  0  0  0  0  0
   -1.1634   -0.6596   -1.5156 C   0  0  0  0  0  0  0  0  0  0  0  0
   -1.4938   -1.1651   -0.2796 C   0  0  0  0  0  0  0  0  0  0  0  0
   -0.2179   -0.9958    0.8415 S   0  0  0  0  0  0  0  0  0  0  0  0
    3.0497   -0.8591    0.7616 N   0  0  0  0  0  0  0  0  0  0  0  0
    2.6953   -2.1787    0.8752 N   0  0  0  0  0  0  0  0  0  0  0  0
    3.6786   -2.7429    1.5634 C   0  0  0  0  0  0  0  0  0  0  0  0
    4.6826   -1.8349    1.9137 C   0  0  0  0  0  0  0  0  0  0  0  0
    5.8513   -2.1722    2.6547 C   0  0  0  0  0  0  0  0  0  0  0  0
    6.7934   -2.4717    3.2600 N   0  0  0  0  0  0  0  0  0  0  0  0
    4.2612   -0.6101    1.4226 C   0  0  0  0  0  0  0  0  0  0  0  0
    4.9199    0.7653    1.6064 C   0  0  0  0  0  0  0  0  0  0  0  0
    6.4233    0.9142    1.7075 C   0  0  0  0  0  0  0  0  0  0  0  0
    5.5917    1.0687    2.9341 C   0  0  0  0  0  0  0  0  0  0  0  0
    0.6308    0.2998   -2.4181 H   0  0  0  0  0  0  0  0  0  0  0  0
   -1.8465   -0.6555   -2.3564 H   0  0  0  0  0  0  0  0  0  0  0  0
   -2.4291   -1.6144    0.0281 H   0  0  0  0  0  0  0  0  0  0  0  0
    3.6149   -3.8032    1.7852 H   0  0  0  0  0  0  0  0  0  0  0  0
    4.3999    1.6006    1.1449 H   0  0  0  0  0  0  0  0  0  0  0  0
    6.8788    1.8156    1.3075 H   0  0  0  0  0  0  0  0  0  0  0  0
    7.0683    0.0498    1.6155 H   0  0  0  0  0  0  0  0  0  0  0  0
    5.4690    2.0658    3.3449 H   0  0  0  0  0  0  0  0  0  0  0  0
    5.6723    0.3126    3.7051 H   0  0  0  0  0  0  0  0  0  0  0  0
  1  2  2  0  0  0  0
  2  3  1  0  0  0  0
  2  8  1  0  0  0  0
  3  4  2  0  0  0  0
  3  7  1  0  0  0  0
  4  5  1  0  0  0  0
  4 18  1  0  0  0  0
  5  6  2  0  0  0  0
  5 19  1  0  0  0  0
  6  7  1  0  0  0  0
  6 20  1  0  0  0  0
  8  9  1  0  0  0  0
  8 14  1  0  0  0  0
  9 10  2  0  0  0  0
 10 11  1  0  0  0  0
 10 21  1  0  0  0  0
 11 12  1  0  0  0  0
 11 14  2  0  0  0  0
 12 13  3  0  0  0  0
 14 15  1  0  0  0  0
 15 16  1  0  0  0  0
 15 17  1  0  0  0  0
 15 22  1  0  0  0  0
 16 17  1  0  0  0  0
 16 23  1  0  0  0  0
 16 24  1  0  0  0  0
 17 25  1  0  0  0  0
 17 26  1  0  0  0  0
M  END
$$$$
