
 OpenBabel07202414133D

 52 55  0  0  0  0  0  0  0  0999 V2000
    1.5283    9.4948    3.6604 C   0  0  0  0  0  0  0  0  0  0  0  0
    2.6610    8.5573    3.5349 N   0  0  0  0  0  0  0  0  0  0  0  0
    3.4143    8.4392    4.7917 C   0  0  0  0  0  0  0  0  0  0  0  0
    2.4764    7.4513    2.6921 C   0  0  0  0  0  0  0  0  0  0  0  0
    1.5483    7.4272    1.6452 C   0  0  0  0  0  0  0  0  0  0  0  0
    1.1388    6.3207    0.9719 N   0  0  0  0  0  0  0  0  0  0  0  0
    1.6278    5.1421    1.3990 C   0  0  0  0  0  0  0  0  0  0  0  0
    2.6213    5.0302    2.3575 C   0  0  0  0  0  0  0  0  0  0  0  0
    2.9663    3.7175    3.0462 C   0  0  0  0  0  0  0  0  0  0  0  0
    1.7861    2.9449    3.5355 N   0  0  0  0  0  0  0  0  0  0  0  0
    1.2426    1.7757    2.9319 C   0  0  0  0  0  0  0  0  0  0  0  0
    0.2451    1.2349    3.4291 O   0  0  0  0  0  0  0  0  0  0  0  0
    1.7269    1.1108    1.6087 C   0  0  0  0  0  0  0  0  0  0  0  0
    2.4122    1.7688    0.6567 C   0  0  0  0  0  0  0  0  0  0  0  0
    2.6800    1.2569   -0.7061 C   0  0  0  0  0  0  0  0  0  0  0  0
    3.3867    1.8929   -1.4793 O   0  0  0  0  0  0  0  0  0  0  0  0
    2.0779    0.0986   -1.0599 N   0  0  0  0  0  0  0  0  0  0  0  0
    1.3750   -0.6915   -0.1541 C   0  0  0  0  0  0  0  0  0  0  0  0
    0.8700   -1.9112   -0.6288 C   0  0  0  0  0  0  0  0  0  0  0  0
    0.2413   -2.7832    0.2481 C   0  0  0  0  0  0  0  0  0  0  0  0
    0.1407   -2.4352    1.5897 C   0  0  0  0  0  0  0  0  0  0  0  0
    0.6330   -1.1980    2.0513 C   0  0  0  0  0  0  0  0  0  0  0  0
    1.2359   -0.2708    1.1879 C   0  0  0  0  0  0  0  0  0  0  0  0
    1.1988    3.4572    4.8146 C   0  0  0  0  0  0  0  0  0  0  0  0
    0.5699    2.6266    5.7536 C   0  0  0  0  0  0  0  0  0  0  0  0
    0.0259    3.1229    6.9626 C   0  0  0  0  0  0  0  0  0  0  0  0
    0.1008    4.4761    7.2733 C   0  0  0  0  0  0  0  0  0  0  0  0
    0.7144    5.3209    6.3742 C   0  0  0  0  0  0  0  0  0  0  0  0
    0.7870    7.0035    6.7277 Cl  0  0  0  0  0  0  0  0  0  0  0  0
    1.2585    4.8182    5.1822 C   0  0  0  0  0  0  0  0  0  0  0  0
    3.1545    6.2362    2.8623 C   0  0  0  0  0  0  0  0  0  0  0  0
    1.7585   10.2777    4.3950 H   0  0  0  0  0  0  0  0  0  0  0  0
    0.6253    8.9812    4.0158 H   0  0  0  0  0  0  0  0  0  0  0  0
    1.3144   10.0115    2.7212 H   0  0  0  0  0  0  0  0  0  0  0  0
    2.7718    8.6518    5.6534 H   0  0  0  0  0  0  0  0  0  0  0  0
    4.2113    9.1873    4.7999 H   0  0  0  0  0  0  0  0  0  0  0  0
    3.8630    7.4660    4.9925 H   0  0  0  0  0  0  0  0  0  0  0  0
    1.0457    8.3300    1.3130 H   0  0  0  0  0  0  0  0  0  0  0  0
    1.1319    4.2795    0.9679 H   0  0  0  0  0  0  0  0  0  0  0  0
    3.5743    3.9340    3.9374 H   0  0  0  0  0  0  0  0  0  0  0  0
    3.6343    3.0985    2.4478 H   0  0  0  0  0  0  0  0  0  0  0  0
    2.7938    2.7673    0.7350 H   0  0  0  0  0  0  0  0  0  0  0  0
    2.2273   -0.2116   -2.0120 H   0  0  0  0  0  0  0  0  0  0  0  0
    0.9706   -2.1929   -1.6746 H   0  0  0  0  0  0  0  0  0  0  0  0
   -0.1523   -3.7329   -0.1069 H   0  0  0  0  0  0  0  0  0  0  0  0
   -0.3317   -3.1236    2.2881 H   0  0  0  0  0  0  0  0  0  0  0  0
    0.5226   -0.9960    3.1123 H   0  0  0  0  0  0  0  0  0  0  0  0
    0.4937    1.5534    5.6025 H   0  0  0  0  0  0  0  0  0  0  0  0
   -0.4546    2.4472    7.6584 H   0  0  0  0  0  0  0  0  0  0  0  0
   -0.3180    4.8632    8.1974 H   0  0  0  0  0  0  0  0  0  0  0  0
    1.6733    5.5679    4.5399 H   0  0  0  0  0  0  0  0  0  0  0  0
    3.9914    6.1649    3.5479 H   0  0  0  0  0  0  0  0  0  0  0  0
  1  2  1  0  0  0  0
  1 32  1  0  0  0  0
  1 33  1  0  0  0  0
  1 34  1  0  0  0  0
  2  3  1  0  0  0  0
  2  4  1  0  0  0  0
  3 35  1  0  0  0  0
  3 36  1  0  0  0  0
  3 37  1  0  0  0  0
  4  5  1  0  0  0  0
  4 31  2  0  0  0  0
  5  6  2  0  0  0  0
  5 38  1  0  0  0  0
  6  7  1  0  0  0  0
  7  8  2  0  0  0  0
  7 39  1  0  0  0  0
  8  9  1  0  0  0  0
  8 31  1  0  0  0  0
  9 10  1  0  0  0  0
  9 40  1  0  0  0  0
  9 41  1  0  0  0  0
 10 11  1  0  0  0  0
 10 24  1  0  0  0  0
 11 12  2  0  0  0  0
 11 13  1  0  0  0  0
 13 14  2  0  0  0  0
 13 23  1  0  0  0  0
 14 15  1  0  0  0  0
 14 42  1  0  0  0  0
 15 16  2  0  0  0  0
 15 17  1  0  0  0  0
 17 18  1  0  0  0  0
 17 43  1  0  0  0  0
 18 19  1  0  0  0  0
 18 23  2  0  0  0  0
 19 20  2  0  0  0  0
 19 44  1  0  0  0  0
 20 21  1  0  0  0  0
 20 45  1  0  0  0  0
 21 22  2  0  0  0  0
 21 46  1  0  0  0  0
 22 23  1  0  0  0  0
 22 47  1  0  0  0  0
 24 25  1  0  0  0  0
 24 30  2  0  0  0  0
 25 26  2  0  0  0  0
 25 48  1  0  0  0  0
 26 27  1  0  0  0  0
 26 49  1  0  0  0  0
 27 28  2  0  0  0  0
 27 50  1  0  0  0  0
 28 29  1  0  0  0  0
 28 30  1  0  0  0  0
 30 51  1  0  0  0  0
 31 52  1  0  0  0  0
M  END
$$$$
