
 OpenBabel07202414143D

 53 56  0  0  1  0  0  0  0  0999 V2000
    6.2787    0.6728    4.1527 C   0  0  0  0  0  0  0  0  0  0  0  0
    6.1119    1.1038    2.7878 N   0  0  0  0  0  0  0  0  0  0  0  0
    5.8117    0.2049    1.7914 C   0  0  0  0  0  0  0  0  0  0  0  0
    5.6618   -0.9985    1.9891 O   0  0  0  0  0  0  0  0  0  0  0  0
    5.6116    0.8316    0.4083 C   0  0  0  0  0  0  0  0  0  0  0  0
    6.2586    2.0951    0.2394 O   0  0  0  0  0  0  0  0  0  0  0  0
    6.0991    2.5768   -1.1018 C   0  0  0  0  0  0  0  0  0  0  0  0
    7.0185    3.7866   -1.4562 C   0  0  3  0  0  0  0  0  0  0  0  0
    6.6906    4.1450   -2.9419 C   0  0  0  0  0  0  0  0  0  0  0  0
    5.9333    3.4451   -3.6118 O   0  0  0  0  0  0  0  0  0  0  0  0
    7.3289    5.2720   -3.4407 N   0  0  0  0  0  0  0  0  0  0  0  0
    7.1199    5.9066   -4.6982 C   0  0  0  0  0  0  0  0  0  0  0  0
    6.1696    5.4820   -5.6266 C   0  0  0  0  0  0  0  0  0  0  0  0
    5.8084    6.1723   -6.7370 N   0  0  0  0  0  0  0  0  0  0  0  0
    6.4816    7.3130   -6.9835 C   0  0  0  0  0  0  0  0  0  0  0  0
    7.5597    7.7654   -6.2250 C   0  0  0  0  0  0  0  0  0  0  0  0
    8.3252    8.8685   -6.6415 C   0  0  0  0  0  0  0  0  0  0  0  0
    9.4336    9.2798   -5.9086 C   0  0  0  0  0  0  0  0  0  0  0  0
    9.7541    8.6267   -4.7254 C   0  0  0  0  0  0  0  0  0  0  0  0
    8.9846    7.5451   -4.2904 C   0  0  0  0  0  0  0  0  0  0  0  0
    7.8855    7.0650   -5.0371 C   0  0  0  0  0  0  0  0  0  0  0  0
    8.5062    3.3835   -1.3654 C   0  0  0  0  0  0  0  0  0  0  0  0
    8.9640    3.2620    0.0800 C   0  0  0  0  0  0  0  0  0  0  0  0
    8.8215    4.4832    0.7987 O   0  0  0  0  0  0  0  0  0  0  0  0
    7.6877    5.2071    0.5549 C   0  0  0  0  0  0  0  0  0  0  0  0
    7.5133    6.2942    1.4143 C   0  0  0  0  0  0  0  0  0  0  0  0
    6.4509    7.1757    1.2341 C   0  0  0  0  0  0  0  0  0  0  0  0
    5.5557    6.9503    0.1856 C   0  0  0  0  0  0  0  0  0  0  0  0
    4.2799    8.0735   -0.0808 Cl  0  0  0  0  0  0  0  0  0  0  0  0
    5.7053    5.8473   -0.6597 C   0  0  0  0  0  0  0  0  0  0  0  0
    6.7917    4.9635   -0.5025 C   0  0  0  0  0  0  0  0  0  0  0  0
    6.4991    1.5427    4.7764 H   0  0  0  0  0  0  0  0  0  0  0  0
    7.0972   -0.0486    4.2091 H   0  0  0  0  0  0  0  0  0  0  0  0
    5.3570    0.1954    4.4914 H   0  0  0  0  0  0  0  0  0  0  0  0
    6.3226    2.0576    2.5122 H   0  0  0  0  0  0  0  0  0  0  0  0
    4.5342    0.9497    0.2530 H   0  0  0  0  0  0  0  0  0  0  0  0
    6.0160    0.1202   -0.3212 H   0  0  0  0  0  0  0  0  0  0  0  0
    5.0416    2.8385   -1.2425 H   0  0  0  0  0  0  0  0  0  0  0  0
    6.3321    1.7536   -1.7915 H   0  0  0  0  0  0  0  0  0  0  0  0
    7.8946    5.7885   -2.7753 H   0  0  0  0  0  0  0  0  0  0  0  0
    5.6189    4.5483   -5.5225 H   0  0  0  0  0  0  0  0  0  0  0  0
    6.1336    7.8607   -7.8530 H   0  0  0  0  0  0  0  0  0  0  0  0
    8.0856    9.3900   -7.5678 H   0  0  0  0  0  0  0  0  0  0  0  0
   10.0541   10.0972   -6.2658 H   0  0  0  0  0  0  0  0  0  0  0  0
   10.6188    8.9441   -4.1466 H   0  0  0  0  0  0  0  0  0  0  0  0
    9.3041    7.0579   -3.3733 H   0  0  0  0  0  0  0  0  0  0  0  0
    9.1330    4.1498   -1.8428 H   0  0  0  0  0  0  0  0  0  0  0  0
    8.6937    2.4491   -1.9040 H   0  0  0  0  0  0  0  0  0  0  0  0
   10.0293    3.0088    0.0975 H   0  0  0  0  0  0  0  0  0  0  0  0
    8.4678    2.4620    0.6341 H   0  0  0  0  0  0  0  0  0  0  0  0
    8.2208    6.4637    2.2258 H   0  0  0  0  0  0  0  0  0  0  0  0
    6.3347    8.0285    1.8920 H   0  0  0  0  0  0  0  0  0  0  0  0
    4.9856    5.7101   -1.4659 H   0  0  0  0  0  0  0  0  0  0  0  0
  1  2  1  0  0  0  0
  1 32  1  0  0  0  0
  1 33  1  0  0  0  0
  1 34  1  0  0  0  0
  2  3  1  0  0  0  0
  2 35  1  0  0  0  0
  3  4  2  0  0  0  0
  3  5  1  0  0  0  0
  5  6  1  0  0  0  0
  5 36  1  0  0  0  0
  5 37  1  0  0  0  0
  6  7  1  0  0  0  0
  7  8  1  0  0  0  0
  7 38  1  0  0  0  0
  7 39  1  0  0  0  0
  8  9  1  0  0  0  0
  8 22  1  0  0  0  0
  8 31  1  0  0  0  0
  9 10  2  0  0  0  0
  9 11  1  0  0  0  0
 11 12  1  0  0  0  0
 11 40  1  0  0  0  0
 12 13  1  0  0  0  0
 12 21  2  0  0  0  0
 13 14  2  0  0  0  0
 13 41  1  0  0  0  0
 14 15  1  0  0  0  0
 15 16  2  0  0  0  0
 15 42  1  0  0  0  0
 16 17  1  0  0  0  0
 16 21  1  0  0  0  0
 17 18  2  0  0  0  0
 17 43  1  0  0  0  0
 18 19  1  0  0  0  0
 18 44  1  0  0  0  0
 19 20  2  0  0  0  0
 19 45  1  0  0  0  0
 20 21  1  0  0  0  0
 20 46  1  0  0  0  0
 22 23  1  0  0  0  0
 22 47  1  0  0  0  0
 22 48  1  0  0  0  0
 23 24  1  0  0  0  0
 23 49  1  0  0  0  0
 23 50  1  0  0  0  0
 24 25  1  0  0  0  0
 25 26  1  0  0  0  0
 25 31  2  0  0  0  0
 26 27  2  0  0  0  0
 26 51  1  0  0  0  0
 27 28  1  0  0  0  0
 27 52  1  0  0  0  0
 28 29  1  0  0  0  0
 28 30  2  0  0  0  0
 30 31  1  0  0  0  0
 30 53  1  0  0  0  0
M  END
$$$$
