
 OpenBabel07202414203D

 43 46  0  0  1  0  0  0  0  0999 V2000
    3.9478   -0.7212    2.3753 C   0  0  0  0  0  0  0  0  0  0  0  0
    4.0709    0.6606    2.3570 C   0  0  0  0  0  0  0  0  0  0  0  0
    3.2237    1.4489    1.5602 C   0  0  0  0  0  0  0  0  0  0  0  0
    2.2140    0.8744    0.7588 C   0  0  0  0  0  0  0  0  0  0  0  0
    2.0977   -0.5498    0.8147 C   0  0  0  0  0  0  0  0  0  0  0  0
    2.9560   -1.3268    1.6098 C   0  0  0  0  0  0  0  0  0  0  0  0
    1.1047   -1.1771    0.0722 C   0  0  0  0  0  0  0  0  0  0  0  0
    0.2594   -0.5342   -0.7456 N   0  0  0  0  0  0  0  0  0  0  0  0
    0.3770    0.8145   -0.7856 C   0  0  0  0  0  0  0  0  0  0  0  0
    1.2915    1.5957   -0.0561 C   0  0  0  0  0  0  0  0  0  0  0  0
    1.2366    3.0523   -0.0889 N   0  0  0  0  0  0  0  0  0  0  0  0
    0.0199    3.6997   -0.2551 C   0  0  0  0  0  0  0  0  0  0  0  0
   -1.0049    3.0316   -0.4557 O   0  0  0  0  0  0  0  0  0  0  0  0
   -0.1899    5.1870    0.1281 C   0  0  3  0  0  0  0  0  0  0  0  0
    0.0990    5.2778    1.6332 C   0  0  0  0  0  0  0  0  0  0  0  0
   -0.3852    6.6013    2.1756 C   0  0  0  0  0  0  0  0  0  0  0  0
    0.3189    7.6868    1.5753 O   0  0  0  0  0  0  0  0  0  0  0  0
    0.4711    7.6222    0.2166 C   0  0  0  0  0  0  0  0  0  0  0  0
    0.4441    6.4144   -0.5476 C   0  0  0  0  0  0  0  0  0  0  0  0
    0.5783    6.5399   -1.9398 C   0  0  0  0  0  0  0  0  0  0  0  0
    0.6305    7.8178   -2.5341 C   0  0  0  0  0  0  0  0  0  0  0  0
    0.6017    8.9790   -1.7689 C   0  0  0  0  0  0  0  0  0  0  0  0
    0.5588    8.8805   -0.3878 C   0  0  0  0  0  0  0  0  0  0  0  0
    0.5990    7.9620   -4.2513 Cl  0  0  0  0  0  0  0  0  0  0  0  0
   -1.7176    5.4220   -0.2470 C   0  0  0  0  0  0  0  0  0  0  0  0
   -2.6025    4.7904    0.6746 O   0  0  0  0  0  0  0  0  0  0  0  0
    4.5996   -1.3325    2.9936 H   0  0  0  0  0  0  0  0  0  0  0  0
    4.8269    1.1363    2.9778 H   0  0  0  0  0  0  0  0  0  0  0  0
    3.3636    2.5240    1.5949 H   0  0  0  0  0  0  0  0  0  0  0  0
    2.8603   -2.4074    1.6349 H   0  0  0  0  0  0  0  0  0  0  0  0
    0.9608   -2.2554    0.1023 H   0  0  0  0  0  0  0  0  0  0  0  0
   -0.3381    1.2536   -1.4745 H   0  0  0  0  0  0  0  0  0  0  0  0
    2.0167    3.5575    0.3047 H   0  0  0  0  0  0  0  0  0  0  0  0
    1.1939    5.2121    1.7935 H   0  0  0  0  0  0  0  0  0  0  0  0
   -0.3562    4.4644    2.1817 H   0  0  0  0  0  0  0  0  0  0  0  0
   -0.1941    6.6501    3.2535 H   0  0  0  0  0  0  0  0  0  0  0  0
   -1.4612    6.7503    2.0459 H   0  0  0  0  0  0  0  0  0  0  0  0
    0.5131    5.6682   -2.5860 H   0  0  0  0  0  0  0  0  0  0  0  0
    0.5576    9.9665   -2.2346 H   0  0  0  0  0  0  0  0  0  0  0  0
    0.4913    9.7767    0.2261 H   0  0  0  0  0  0  0  0  0  0  0  0
   -1.9290    5.0395   -1.2585 H   0  0  0  0  0  0  0  0  0  0  0  0
   -1.9998    6.4804   -0.2861 H   0  0  0  0  0  0  0  0  0  0  0  0
   -2.4810    3.8293    0.5159 H   0  0  0  0  0  0  0  0  0  0  0  0
  1  2  1  0  0  0  0
  1  6  2  0  0  0  0
  1 27  1  0  0  0  0
  2  3  2  0  0  0  0
  2 28  1  0  0  0  0
  3  4  1  0  0  0  0
  3 29  1  0  0  0  0
  4  5  1  0  0  0  0
  4 10  2  0  0  0  0
  5  6  1  0  0  0  0
  5  7  2  0  0  0  0
  6 30  1  0  0  0  0
  7  8  1  0  0  0  0
  7 31  1  0  0  0  0
  8  9  2  0  0  0  0
  9 10  1  0  0  0  0
  9 32  1  0  0  0  0
 10 11  1  0  0  0  0
 11 12  1  0  0  0  0
 11 33  1  0  0  0  0
 12 13  2  0  0  0  0
 12 14  1  0  0  0  0
 14 15  1  0  0  0  0
 14 19  1  0  0  0  0
 14 25  1  0  0  0  0
 15 16  1  0  0  0  0
 15 34  1  0  0  0  0
 15 35  1  0  0  0  0
 16 17  1  0  0  0  0
 16 36  1  0  0  0  0
 16 37  1  0  0  0  0
 17 18  1  0  0  0  0
 18 19  1  0  0  0  0
 18 23  2  0  0  0  0
 19 20  2  0  0  0  0
 20 21  1  0  0  0  0
 20 38  1  0  0  0  0
 21 22  2  0  0  0  0
 21 24  1  0  0  0  0
 22 23  1  0  0  0  0
 22 39  1  0  0  0  0
 23 40  1  0  0  0  0
 25 26  1  0  0  0  0
 25 41  1  0  0  0  0
 25 42  1  0  0  0  0
 26 43  1  0  0  0  0
M  END
$$$$
