
 OpenBabel07202414123D

 67 70  0  0  1  0  0  0  0  0999 V2000
    3.0034    1.3858   -0.5252 C   0  0  0  0  0  0  0  0  0  0  0  0
    2.6586    0.0405    0.1569 C   0  0  0  0  0  0  0  0  0  0  0  0
    3.0936    0.1513    1.6316 C   0  0  0  0  0  0  0  0  0  0  0  0
    1.1201   -0.1134    0.0994 C   0  0  0  0  0  0  0  0  0  0  0  0
    3.2985   -1.1809   -0.5238 C   0  0  0  0  0  0  0  0  0  0  0  0
    4.0160   -1.0975   -1.7193 C   0  0  0  0  0  0  0  0  0  0  0  0
    4.4209   -2.2486   -2.4294 C   0  0  0  0  0  0  0  0  0  0  0  0
    4.1474   -3.5451   -1.9784 C   0  0  0  0  0  0  0  0  0  0  0  0
    4.3755   -4.7536   -2.7952 N   0  0  0  0  0  0  0  0  0  0  0  0
    3.6008   -5.9796   -2.4037 C   0  0  3  0  0  0  0  0  0  0  0  0
    2.5245   -6.4230   -3.4617 C   0  0  0  0  0  0  0  0  0  0  0  0
    2.7508   -6.6884   -4.6384 O   0  0  0  0  0  0  0  0  0  0  0  0
    1.2179   -6.4929   -2.9864 N   0  0  0  0  0  0  0  0  0  0  0  0
    0.1343   -6.9689   -3.8402 C   0  0  0  0  0  0  0  0  0  0  0  0
    0.0614   -8.4992   -3.8453 C   0  0  0  0  0  0  0  0  0  0  0  0
   -1.0592   -9.0435   -4.6965 C   0  0  0  0  0  0  0  0  0  0  0  0
   -0.8433   -9.3475   -6.0495 C   0  0  0  0  0  0  0  0  0  0  0  0
   -1.8667   -9.8959   -6.8315 C   0  0  0  0  0  0  0  0  0  0  0  0
   -3.1207  -10.1371   -6.2674 C   0  0  0  0  0  0  0  0  0  0  0  0
   -3.3399   -9.8201   -4.9293 C   0  0  0  0  0  0  0  0  0  0  0  0
   -4.5404  -10.0480   -4.3911 F   0  0  0  0  0  0  0  0  0  0  0  0
   -2.3278   -9.2750   -4.1464 C   0  0  0  0  0  0  0  0  0  0  0  0
    4.3999   -7.0926   -1.7236 C   0  0  0  0  0  0  0  0  0  0  0  0
    5.7745   -6.9989   -1.4445 C   0  0  0  0  0  0  0  0  0  0  0  0
    6.4394   -8.0351   -0.7919 C   0  0  0  0  0  0  0  0  0  0  0  0
    5.6984   -9.1241   -0.3774 C   0  0  0  0  0  0  0  0  0  0  0  0
    4.3739   -9.2541   -0.6015 N   0  0  0  0  0  0  0  0  0  0  0  0
    3.7657   -8.2504   -1.2772 C   0  0  0  0  0  0  0  0  0  0  0  0
    5.2116   -4.7284   -3.9667 C   0  0  0  0  0  0  0  0  0  0  0  0
    5.7959   -3.7063   -4.3330 O   0  0  0  0  0  0  0  0  0  0  0  0
    5.4043   -5.9254   -4.7825 C   0  0  0  0  0  0  0  0  0  0  0  0
    5.6244   -6.0601   -6.1460 C   0  0  0  0  0  0  0  0  0  0  0  0
    5.6958   -7.4501   -6.4214 C   0  0  0  0  0  0  0  0  0  0  0  0
    5.5770   -8.0821   -5.2095 C   0  0  0  0  0  0  0  0  0  0  0  0
    5.4428   -7.1689   -4.2212 O   0  0  0  0  0  0  0  0  0  0  0  0
    3.5787   -3.6097   -0.6916 C   0  0  0  0  0  0  0  0  0  0  0  0
    3.1365   -2.4663    0.0027 C   0  0  0  0  0  0  0  0  0  0  0  0
    2.5176    2.2249   -0.0131 H   0  0  0  0  0  0  0  0  0  0  0  0
    2.6668    1.4109   -1.5674 H   0  0  0  0  0  0  0  0  0  0  0  0
    4.0835    1.5753   -0.5106 H   0  0  0  0  0  0  0  0  0  0  0  0
    2.6309    1.0216    2.1099 H   0  0  0  0  0  0  0  0  0  0  0  0
    4.1806    0.2686    1.7204 H   0  0  0  0  0  0  0  0  0  0  0  0
    2.8003   -0.7221    2.2243 H   0  0  0  0  0  0  0  0  0  0  0  0
    0.6176    0.7279    0.5920 H   0  0  0  0  0  0  0  0  0  0  0  0
    0.7768   -1.0290    0.5940 H   0  0  0  0  0  0  0  0  0  0  0  0
    0.7662   -0.1493   -0.9376 H   0  0  0  0  0  0  0  0  0  0  0  0
    4.2514   -0.1368   -2.1706 H   0  0  0  0  0  0  0  0  0  0  0  0
    4.9113   -2.0484   -3.3752 H   0  0  0  0  0  0  0  0  0  0  0  0
    2.9418   -5.6814   -1.5886 H   0  0  0  0  0  0  0  0  0  0  0  0
    0.9690   -6.0363   -2.1180 H   0  0  0  0  0  0  0  0  0  0  0  0
    0.2814   -6.5853   -4.8568 H   0  0  0  0  0  0  0  0  0  0  0  0
   -0.7952   -6.5365   -3.4548 H   0  0  0  0  0  0  0  0  0  0  0  0
   -0.0586   -8.8635   -2.8162 H   0  0  0  0  0  0  0  0  0  0  0  0
    1.0137   -8.9235   -4.1888 H   0  0  0  0  0  0  0  0  0  0  0  0
    0.1333   -9.1742   -6.5008 H   0  0  0  0  0  0  0  0  0  0  0  0
   -1.6826  -10.1420   -7.8732 H   0  0  0  0  0  0  0  0  0  0  0  0
   -3.9185  -10.5736   -6.8554 H   0  0  0  0  0  0  0  0  0  0  0  0
   -2.5375   -9.0527   -3.1035 H   0  0  0  0  0  0  0  0  0  0  0  0
    6.3610   -6.1448   -1.7756 H   0  0  0  0  0  0  0  0  0  0  0  0
    7.5089   -7.9910   -0.6210 H   0  0  0  0  0  0  0  0  0  0  0  0
    6.1654   -9.9438    0.1605 H   0  0  0  0  0  0  0  0  0  0  0  0
    2.7025   -8.4185   -1.4365 H   0  0  0  0  0  0  0  0  0  0  0  0
    5.6714   -5.2459   -6.8556 H   0  0  0  0  0  0  0  0  0  0  0  0
    5.7967   -7.9335   -7.3824 H   0  0  0  0  0  0  0  0  0  0  0  0
    5.5529   -9.1150   -4.8924 H   0  0  0  0  0  0  0  0  0  0  0  0
    3.4548   -4.5462   -0.1560 H   0  0  0  0  0  0  0  0  0  0  0  0
    2.6357   -2.6128    0.9583 H   0  0  0  0  0  0  0  0  0  0  0  0
  1  2  1  0  0  0  0
  1 38  1  0  0  0  0
  1 39  1  0  0  0  0
  1 40  1  0  0  0  0
  2  3  1  0  0  0  0
  2  4  1  0  0  0  0
  2  5  1  0  0  0  0
  3 41  1  0  0  0  0
  3 42  1  0  0  0  0
  3 43  1  0  0  0  0
  4 44  1  0  0  0  0
  4 45  1  0  0  0  0
  4 46  1  0  0  0  0
  5  6  1  0  0  0  0
  5 37  2  0  0  0  0
  6  7  2  0  0  0  0
  6 47  1  0  0  0  0
  7  8  1  0  0  0  0
  7 48  1  0  0  0  0
  8  9  1  0  0  0  0
  8 36  2  0  0  0  0
  9 10  1  0  0  0  0
  9 29  1  0  0  0  0
 10 11  1  0  0  0  0
 10 23  1  0  0  0  0
 10 49  1  0  0  0  0
 11 12  2  0  0  0  0
 11 13  1  0  0  0  0
 13 14  1  0  0  0  0
 13 50  1  0  0  0  0
 14 15  1  0  0  0  0
 14 51  1  0  0  0  0
 14 52  1  0  0  0  0
 15 16  1  0  0  0  0
 15 53  1  0  0  0  0
 15 54  1  0  0  0  0
 16 17  1  0  0  0  0
 16 22  2  0  0  0  0
 17 18  2  0  0  0  0
 17 55  1  0  0  0  0
 18 19  1  0  0  0  0
 18 56  1  0  0  0  0
 19 20  2  0  0  0  0
 19 57  1  0  0  0  0
 20 21  1  0  0  0  0
 20 22  1  0  0  0  0
 22 58  1  0  0  0  0
 23 24  1  0  0  0  0
 23 28  2  0  0  0  0
 24 25  2  0  0  0  0
 24 59  1  0  0  0  0
 25 26  1  0  0  0  0
 25 60  1  0  0  0  0
 26 27  2  0  0  0  0
 26 61  1  0  0  0  0
 27 28  1  0  0  0  0
 28 62  1  0  0  0  0
 29 30  2  0  0  0  0
 29 31  1  0  0  0  0
 31 32  2  0  0  0  0
 31 35  1  0  0  0  0
 32 33  1  0  0  0  0
 32 63  1  0  0  0  0
 33 34  2  0  0  0  0
 33 64  1  0  0  0  0
 34 35  1  0  0  0  0
 34 65  1  0  0  0  0
 36 37  1  0  0  0  0
 36 66  1  0  0  0  0
 37 67  1  0  0  0  0
M  END
$$$$
