
 OpenBabel07202414123D

 79 84  0  0  1  0  0  0  0  0999 V2000
    1.3934   -0.4890    0.9599 C   0  0  0  0  0  0  0  0  0  0  0  0
    0.8090   -1.5104    1.9500 C   0  0  0  0  0  0  0  0  0  0  0  0
    0.5357   -0.8466    3.3094 C   0  0  0  0  0  0  0  0  0  0  0  0
   -0.5263   -2.0275    1.3844 C   0  0  0  0  0  0  0  0  0  0  0  0
    1.6875   -2.6855    2.0940 N   0  0  0  0  0  0  0  0  0  0  0  0
    3.0226   -2.3882    2.6150 C   0  0  0  0  0  0  0  0  0  0  0  0
    3.8715   -3.6513    2.6916 C   0  0  0  0  0  0  0  0  0  0  0  0
    5.1477   -3.2660    3.1980 O   0  0  0  0  0  0  0  0  0  0  0  0
    6.0750   -4.2607    3.2898 C   0  0  0  0  0  0  0  0  0  0  0  0
    5.8643   -5.6069    3.0098 C   0  0  0  0  0  0  0  0  0  0  0  0
    6.9222   -6.4999    3.0961 C   0  0  0  0  0  0  0  0  0  0  0  0
    8.1981   -6.0630    3.4772 C   0  0  0  0  0  0  0  0  0  0  0  0
    9.2760   -6.9405    3.4825 C   0  0  0  0  0  0  0  0  0  0  0  0
   10.5406   -6.5832    3.7623 N   0  0  0  0  0  0  0  0  0  0  0  0
   10.7343   -5.2902    4.1155 C   0  0  0  0  0  0  0  0  0  0  0  0
    9.7247   -4.3212    4.2301 C   0  0  0  0  0  0  0  0  0  0  0  0
   10.0458   -3.0685    4.8264 N   0  0  0  0  0  0  0  0  0  0  0  0
    9.1926   -2.2420    5.6203 C   0  0  0  0  0  0  0  0  0  0  0  0
   10.1197   -1.5227    6.6031 C   0  0  0  0  0  0  0  0  0  0  0  0
   11.5767   -1.9023    6.1998 C   0  0  3  0  0  0  0  0  0  0  0  0
   12.4463   -0.6448    6.0020 C   0  0  0  0  0  0  0  0  0  0  0  0
   13.9182   -0.8530    6.1297 N   0  0  0  0  0  0  0  0  0  0  0  0
   14.8503   -1.5968    4.9096 S   0  0  0  0  0  0  0  0  0  0  0  0
   16.2297   -1.3335    5.2842 O   0  0  0  0  0  0  0  0  0  0  0  0
   14.4106   -2.9635    4.7713 O   0  0  0  0  0  0  0  0  0  0  0  0
   14.5095   -0.6258    3.4256 C   0  0  0  0  0  0  0  0  0  0  0  0
   15.0838   -1.3926    2.2529 C   0  0  0  0  0  0  0  0  0  0  0  0
   16.5006   -1.6818    2.2932 C   0  0  0  0  0  0  0  0  0  0  0  0
   17.6394   -1.8980    2.2736 N   0  0  0  0  0  0  0  0  0  0  0  0
   14.1842   -2.3433    1.4788 C   0  0  0  0  0  0  0  0  0  0  0  0
   14.5600   -1.0332    0.8612 C   0  0  0  0  0  0  0  0  0  0  0  0
   14.2397   -1.3943    7.4742 C   0  0  0  0  0  0  0  0  0  0  0  0
   13.4383   -2.6291    7.8168 C   0  0  0  0  0  0  0  0  0  0  0  0
   13.9733   -3.5260    8.7606 C   0  0  0  0  0  0  0  0  0  0  0  0
   13.2785   -4.6754    9.1273 C   0  0  0  0  0  0  0  0  0  0  0  0
   12.0386   -4.9310    8.5588 C   0  0  0  0  0  0  0  0  0  0  0  0
   11.1621   -6.3392    9.0169 Cl  0  0  0  0  0  0  0  0  0  0  0  0
   11.4906   -4.0490    7.6244 C   0  0  0  0  0  0  0  0  0  0  0  0
   12.1763   -2.8802    7.2307 C   0  0  0  0  0  0  0  0  0  0  0  0
   11.3248   -2.5457    4.8410 C   0  0  0  0  0  0  0  0  0  0  0  0
   12.0491   -2.5193    3.8596 O   0  0  0  0  0  0  0  0  0  0  0  0
    8.4241   -4.7085    3.8339 C   0  0  0  0  0  0  0  0  0  0  0  0
    7.3354   -3.8267    3.6933 C   0  0  0  0  0  0  0  0  0  0  0  0
    0.6890    0.3300    0.7804 H   0  0  0  0  0  0  0  0  0  0  0  0
    1.6128   -0.9568   -0.0073 H   0  0  0  0  0  0  0  0  0  0  0  0
    2.3182   -0.0351    1.3310 H   0  0  0  0  0  0  0  0  0  0  0  0
   -0.1654   -0.0118    3.2021 H   0  0  0  0  0  0  0  0  0  0  0  0
    1.4445   -0.4392    3.7643 H   0  0  0  0  0  0  0  0  0  0  0  0
    0.0970   -1.5597    4.0176 H   0  0  0  0  0  0  0  0  0  0  0  0
   -1.2281   -1.2015    1.2223 H   0  0  0  0  0  0  0  0  0  0  0  0
   -1.0045   -2.7384    2.0687 H   0  0  0  0  0  0  0  0  0  0  0  0
   -0.3872   -2.5335    0.4214 H   0  0  0  0  0  0  0  0  0  0  0  0
    1.7766   -3.1495    1.1891 H   0  0  0  0  0  0  0  0  0  0  0  0
    2.9749   -1.9563    3.6202 H   0  0  0  0  0  0  0  0  0  0  0  0
    3.5537   -1.6680    1.9835 H   0  0  0  0  0  0  0  0  0  0  0  0
    3.9804   -4.0803    1.6876 H   0  0  0  0  0  0  0  0  0  0  0  0
    3.4010   -4.3730    3.3690 H   0  0  0  0  0  0  0  0  0  0  0  0
    4.8965   -5.9838    2.7002 H   0  0  0  0  0  0  0  0  0  0  0  0
    6.7490   -7.5487    2.8394 H   0  0  0  0  0  0  0  0  0  0  0  0
    9.1533   -7.9904    3.2228 H   0  0  0  0  0  0  0  0  0  0  0  0
   11.7701   -5.0744    4.3738 H   0  0  0  0  0  0  0  0  0  0  0  0
    8.4022   -2.8006    6.1253 H   0  0  0  0  0  0  0  0  0  0  0  0
    8.7551   -1.4876    4.9534 H   0  0  0  0  0  0  0  0  0  0  0  0
    9.8736   -1.8163    7.6309 H   0  0  0  0  0  0  0  0  0  0  0  0
    9.9399   -0.4422    6.5504 H   0  0  0  0  0  0  0  0  0  0  0  0
   12.1901    0.0791    6.7921 H   0  0  0  0  0  0  0  0  0  0  0  0
   12.2135   -0.1173    5.0720 H   0  0  0  0  0  0  0  0  0  0  0  0
   14.9978    0.3458    3.5473 H   0  0  0  0  0  0  0  0  0  0  0  0
   13.4351   -0.4782    3.3172 H   0  0  0  0  0  0  0  0  0  0  0  0
   13.1490   -2.4686    1.7720 H   0  0  0  0  0  0  0  0  0  0  0  0
   14.6198   -3.2573    1.0882 H   0  0  0  0  0  0  0  0  0  0  0  0
   13.7855   -0.2811    0.7641 H   0  0  0  0  0  0  0  0  0  0  0  0
   15.2414   -1.0631    0.0154 H   0  0  0  0  0  0  0  0  0  0  0  0
   14.0342   -0.6180    8.2211 H   0  0  0  0  0  0  0  0  0  0  0  0
   15.3120   -1.6074    7.5544 H   0  0  0  0  0  0  0  0  0  0  0  0
   14.9505   -3.3384    9.2040 H   0  0  0  0  0  0  0  0  0  0  0  0
   13.7110   -5.3643    9.8478 H   0  0  0  0  0  0  0  0  0  0  0  0
   10.5163   -4.2943    7.2110 H   0  0  0  0  0  0  0  0  0  0  0  0
    7.4610   -2.7597    3.8367 H   0  0  0  0  0  0  0  0  0  0  0  0
  1  2  1  0  0  0  0
  1 44  1  0  0  0  0
  1 45  1  0  0  0  0
  1 46  1  0  0  0  0
  2  3  1  0  0  0  0
  2  4  1  0  0  0  0
  2  5  1  0  0  0  0
  3 47  1  0  0  0  0
  3 48  1  0  0  0  0
  3 49  1  0  0  0  0
  4 50  1  0  0  0  0
  4 51  1  0  0  0  0
  4 52  1  0  0  0  0
  5  6  1  0  0  0  0
  5 53  1  0  0  0  0
  6  7  1  0  0  0  0
  6 54  1  0  0  0  0
  6 55  1  0  0  0  0
  7  8  1  0  0  0  0
  7 56  1  0  0  0  0
  7 57  1  0  0  0  0
  8  9  1  0  0  0  0
  9 10  1  0  0  0  0
  9 43  2  0  0  0  0
 10 11  2  0  0  0  0
 10 58  1  0  0  0  0
 11 12  1  0  0  0  0
 11 59  1  0  0  0  0
 12 13  1  0  0  0  0
 12 42  2  0  0  0  0
 13 14  2  0  0  0  0
 13 60  1  0  0  0  0
 14 15  1  0  0  0  0
 15 16  2  0  0  0  0
 15 61  1  0  0  0  0
 16 17  1  0  0  0  0
 16 42  1  0  0  0  0
 17 18  1  0  0  0  0
 17 40  1  0  0  0  0
 18 19  1  0  0  0  0
 18 62  1  0  0  0  0
 18 63  1  0  0  0  0
 19 20  1  0  0  0  0
 19 64  1  0  0  0  0
 19 65  1  0  0  0  0
 20 21  1  0  0  0  0
 20 39  1  0  0  0  0
 20 40  1  0  0  0  0
 21 22  1  0  0  0  0
 21 66  1  0  0  0  0
 21 67  1  0  0  0  0
 22 23  1  0  0  0  0
 22 32  1  0  0  0  0
 23 24  2  0  0  0  0
 23 25  2  0  0  0  0
 23 26  1  0  0  0  0
 26 27  1  0  0  0  0
 26 68  1  0  0  0  0
 26 69  1  0  0  0  0
 27 28  1  0  0  0  0
 27 30  1  0  0  0  0
 27 31  1  0  0  0  0
 28 29  3  0  0  0  0
 30 31  1  0  0  0  0
 30 70  1  0  0  0  0
 30 71  1  0  0  0  0
 31 72  1  0  0  0  0
 31 73  1  0  0  0  0
 32 33  1  0  0  0  0
 32 74  1  0  0  0  0
 32 75  1  0  0  0  0
 33 34  1  0  0  0  0
 33 39  2  0  0  0  0
 34 35  2  0  0  0  0
 34 76  1  0  0  0  0
 35 36  1  0  0  0  0
 35 77  1  0  0  0  0
 36 37  1  0  0  0  0
 36 38  2  0  0  0  0
 38 39  1  0  0  0  0
 38 78  1  0  0  0  0
 40 41  2  0  0  0  0
 42 43  1  0  0  0  0
 43 79  1  0  0  0  0
M  END
$$$$
