
 OpenBabel07202414193D

 41 44  0  0  0  0  0  0  0  0999 V2000
    1.0453   -0.1654    0.1488 O   0  0  0  0  0  0  0  0  0  0  0  0
    2.2698   -0.0991    0.1365 C   0  0  0  0  0  0  0  0  0  0  0  0
    3.0023    0.0636    1.2959 N   0  0  0  0  0  0  0  0  0  0  0  0
    2.3235    0.1329    2.5785 C   0  0  0  0  0  0  0  0  0  0  0  0
    3.2799    0.1907    3.7685 C   0  0  0  0  0  0  0  0  0  0  0  0
    4.1544   -1.0208    3.8886 C   0  0  0  0  0  0  0  0  0  0  0  0
    3.7283   -2.3224    4.0712 C   0  0  0  0  0  0  0  0  0  0  0  0
    4.8273   -3.1342    4.1331 N   0  0  0  0  0  0  0  0  0  0  0  0
    5.9748   -2.3894    3.9967 C   0  0  0  0  0  0  0  0  0  0  0  0
    7.3152   -2.7944    4.0037 C   0  0  0  0  0  0  0  0  0  0  0  0
    8.2904   -1.8074    3.8369 C   0  0  0  0  0  0  0  0  0  0  0  0
    7.9295   -0.4735    3.6707 C   0  0  0  0  0  0  0  0  0  0  0  0
    9.1560    0.7185    3.4608 Cl  0  0  0  0  0  0  0  0  0  0  0  0
    6.5877   -0.0804    3.6702 C   0  0  0  0  0  0  0  0  0  0  0  0
    5.5855   -1.0586    3.8365 C   0  0  0  0  0  0  0  0  0  0  0  0
    3.0340   -0.2015   -1.1359 C   0  0  0  0  0  0  0  0  0  0  0  0
    4.2693   -0.8464   -1.1254 C   0  0  0  0  0  0  0  0  0  0  0  0
    5.0416   -1.0398   -2.2171 N   0  0  0  0  0  0  0  0  0  0  0  0
    4.5416   -0.5898   -3.3886 C   0  0  0  0  0  0  0  0  0  0  0  0
    3.3104    0.0552   -3.5332 C   0  0  0  0  0  0  0  0  0  0  0  0
    2.8586    0.4794   -4.7959 C   0  0  0  0  0  0  0  0  0  0  0  0
    1.6313    1.1261   -4.9337 C   0  0  0  0  0  0  0  0  0  0  0  0
    0.8502    1.3640   -3.8134 C   0  0  0  0  0  0  0  0  0  0  0  0
    1.2918    0.9457   -2.5533 C   0  0  0  0  0  0  0  0  0  0  0  0
    2.5262    0.2698   -2.3773 C   0  0  0  0  0  0  0  0  0  0  0  0
    4.0033    0.2115    1.2714 H   0  0  0  0  0  0  0  0  0  0  0  0
    1.6527   -0.7310    2.6563 H   0  0  0  0  0  0  0  0  0  0  0  0
    1.6962    1.0317    2.5642 H   0  0  0  0  0  0  0  0  0  0  0  0
    2.6959    0.2951    4.6914 H   0  0  0  0  0  0  0  0  0  0  0  0
    3.8984    1.0925    3.6861 H   0  0  0  0  0  0  0  0  0  0  0  0
    2.7329   -2.7403    4.1546 H   0  0  0  0  0  0  0  0  0  0  0  0
    4.8045   -4.1369    4.2591 H   0  0  0  0  0  0  0  0  0  0  0  0
    7.5939   -3.8357    4.1346 H   0  0  0  0  0  0  0  0  0  0  0  0
    9.3397   -2.0921    3.8379 H   0  0  0  0  0  0  0  0  0  0  0  0
    6.3241    0.9656    3.5463 H   0  0  0  0  0  0  0  0  0  0  0  0
    4.6890   -1.2677   -0.2151 H   0  0  0  0  0  0  0  0  0  0  0  0
    5.1821   -0.7758   -4.2474 H   0  0  0  0  0  0  0  0  0  0  0  0
    3.4582    0.3043   -5.6859 H   0  0  0  0  0  0  0  0  0  0  0  0
    1.2865    1.4442   -5.9146 H   0  0  0  0  0  0  0  0  0  0  0  0
   -0.1088    1.8665   -3.9065 H   0  0  0  0  0  0  0  0  0  0  0  0
    0.6449    1.1559   -1.7049 H   0  0  0  0  0  0  0  0  0  0  0  0
  1  2  2  0  0  0  0
  2  3  1  0  0  0  0
  2 16  1  0  0  0  0
  3  4  1  0  0  0  0
  3 26  1  0  0  0  0
  4  5  1  0  0  0  0
  4 27  1  0  0  0  0
  4 28  1  0  0  0  0
  5  6  1  0  0  0  0
  5 29  1  0  0  0  0
  5 30  1  0  0  0  0
  6  7  2  0  0  0  0
  6 15  1  0  0  0  0
  7  8  1  0  0  0  0
  7 31  1  0  0  0  0
  8  9  1  0  0  0  0
  8 32  1  0  0  0  0
  9 10  1  0  0  0  0
  9 15  2  0  0  0  0
 10 11  2  0  0  0  0
 10 33  1  0  0  0  0
 11 12  1  0  0  0  0
 11 34  1  0  0  0  0
 12 13  1  0  0  0  0
 12 14  2  0  0  0  0
 14 15  1  0  0  0  0
 14 35  1  0  0  0  0
 16 17  1  0  0  0  0
 16 25  2  0  0  0  0
 17 18  2  0  0  0  0
 17 36  1  0  0  0  0
 18 19  1  0  0  0  0
 19 20  2  0  0  0  0
 19 37  1  0  0  0  0
 20 21  1  0  0  0  0
 20 25  1  0  0  0  0
 21 22  2  0  0  0  0
 21 38  1  0  0  0  0
 22 23  1  0  0  0  0
 22 39  1  0  0  0  0
 23 24  2  0  0  0  0
 23 40  1  0  0  0  0
 24 25  1  0  0  0  0
 24 41  1  0  0  0  0
M  END
$$$$
