
 OpenBabel07202414163D

 37 39  0  0  0  0  0  0  0  0999 V2000
    2.7745   -5.5863    2.8769 C   0  0  0  0  0  0  0  0  0  0  0  0
    2.1653   -4.2624    2.5221 C   0  0  0  0  0  0  0  0  0  0  0  0
    2.5108   -3.0977    3.2089 C   0  0  0  0  0  0  0  0  0  0  0  0
    1.9225   -1.8809    2.8624 C   0  0  0  0  0  0  0  0  0  0  0  0
    0.9682   -1.8194    1.8434 C   0  0  0  0  0  0  0  0  0  0  0  0
    0.6026   -2.9779    1.1415 C   0  0  0  0  0  0  0  0  0  0  0  0
   -0.3944   -2.9185    0.0122 C   0  0  0  0  0  0  0  0  0  0  0  0
   -1.7113   -3.6359    0.2691 C   0  0  0  0  0  0  0  0  0  0  0  0
   -2.7205   -3.0223    0.6097 O   0  0  0  0  0  0  0  0  0  0  0  0
   -1.6479   -5.0087    0.0893 N   0  0  0  0  0  0  0  0  0  0  0  0
   -2.7642   -5.8683    0.2332 C   0  0  0  0  0  0  0  0  0  0  0  0
   -4.0056   -5.5266   -0.3055 C   0  0  0  0  0  0  0  0  0  0  0  0
   -5.1002   -6.3207   -0.2672 N   0  0  0  0  0  0  0  0  0  0  0  0
   -4.9586   -7.4996    0.3758 C   0  0  0  0  0  0  0  0  0  0  0  0
   -3.7791   -7.9444    0.9791 C   0  0  0  0  0  0  0  0  0  0  0  0
   -3.7251   -9.1646    1.6747 C   0  0  0  0  0  0  0  0  0  0  0  0
   -2.5539   -9.5706    2.3097 C   0  0  0  0  0  0  0  0  0  0  0  0
   -1.4211   -8.7681    2.2460 C   0  0  0  0  0  0  0  0  0  0  0  0
   -1.4606   -7.5622    1.5477 C   0  0  0  0  0  0  0  0  0  0  0  0
   -2.6376   -7.1136    0.8968 C   0  0  0  0  0  0  0  0  0  0  0  0
    1.2264   -4.1813    1.4892 C   0  0  0  0  0  0  0  0  0  0  0  0
    0.9323   -5.2906    0.7941 F   0  0  0  0  0  0  0  0  0  0  0  0
    3.4923   -5.4914    3.6985 H   0  0  0  0  0  0  0  0  0  0  0  0
    3.3040   -6.0028    2.0144 H   0  0  0  0  0  0  0  0  0  0  0  0
    1.9944   -6.2868    3.1938 H   0  0  0  0  0  0  0  0  0  0  0  0
    3.2451   -3.1244    4.0126 H   0  0  0  0  0  0  0  0  0  0  0  0
    2.2091   -0.9729    3.3891 H   0  0  0  0  0  0  0  0  0  0  0  0
    0.5241   -0.8600    1.5927 H   0  0  0  0  0  0  0  0  0  0  0  0
    0.0626   -3.3216   -0.9024 H   0  0  0  0  0  0  0  0  0  0  0  0
   -0.6428   -1.8751   -0.2168 H   0  0  0  0  0  0  0  0  0  0  0  0
   -0.7281   -5.4251    0.1810 H   0  0  0  0  0  0  0  0  0  0  0  0
   -4.1536   -4.5914   -0.8398 H   0  0  0  0  0  0  0  0  0  0  0  0
   -5.8659   -8.1002    0.4061 H   0  0  0  0  0  0  0  0  0  0  0  0
   -4.6071   -9.7978    1.7470 H   0  0  0  0  0  0  0  0  0  0  0  0
   -2.5275  -10.5042    2.8658 H   0  0  0  0  0  0  0  0  0  0  0  0
   -0.5092   -9.0682    2.7558 H   0  0  0  0  0  0  0  0  0  0  0  0
   -0.5613   -6.9558    1.5564 H   0  0  0  0  0  0  0  0  0  0  0  0
  1  2  1  0  0  0  0
  1 23  1  0  0  0  0
  1 24  1  0  0  0  0
  1 25  1  0  0  0  0
  2  3  1  0  0  0  0
  2 21  2  0  0  0  0
  3  4  2  0  0  0  0
  3 26  1  0  0  0  0
  4  5  1  0  0  0  0
  4 27  1  0  0  0  0
  5  6  2  0  0  0  0
  5 28  1  0  0  0  0
  6  7  1  0  0  0  0
  6 21  1  0  0  0  0
  7  8  1  0  0  0  0
  7 29  1  0  0  0  0
  7 30  1  0  0  0  0
  8  9  2  0  0  0  0
  8 10  1  0  0  0  0
 10 11  1  0  0  0  0
 10 31  1  0  0  0  0
 11 12  1  0  0  0  0
 11 20  2  0  0  0  0
 12 13  2  0  0  0  0
 12 32  1  0  0  0  0
 13 14  1  0  0  0  0
 14 15  2  0  0  0  0
 14 33  1  0  0  0  0
 15 16  1  0  0  0  0
 15 20  1  0  0  0  0
 16 17  2  0  0  0  0
 16 34  1  0  0  0  0
 17 18  1  0  0  0  0
 17 35  1  0  0  0  0
 18 19  2  0  0  0  0
 18 36  1  0  0  0  0
 19 20  1  0  0  0  0
 19 37  1  0  0  0  0
 21 22  1  0  0  0  0
M  END
$$$$
