
 OpenBabel07202414143D

 48 50  0  0  0  0  0  0  0  0999 V2000
    1.1271    2.0672    0.3814 C   0  0  0  0  0  0  0  0  0  0  0  0
    2.5510    1.9939    0.3605 O   0  0  0  0  0  0  0  0  0  0  0  0
    3.0662    1.1693   -0.5961 C   0  0  0  0  0  0  0  0  0  0  0  0
    2.3839    0.5364   -1.3920 O   0  0  0  0  0  0  0  0  0  0  0  0
    4.5309    1.1220   -0.5535 C   0  0  0  0  0  0  0  0  0  0  0  0
    5.3239    0.0547   -0.9820 C   0  0  0  0  0  0  0  0  0  0  0  0
    4.9002   -1.2547   -1.5706 C   0  0  0  0  0  0  0  0  0  0  0  0
    6.6398    0.3772   -0.6703 N   0  0  0  0  0  0  0  0  0  0  0  0
    8.0107   -0.5765   -1.1257 S   0  0  0  0  0  0  0  0  0  0  0  0
    8.4419   -0.1141   -2.7817 C   0  0  0  0  0  0  0  0  0  0  0  0
    9.0933   -0.1828   -0.2498 O   0  0  0  0  0  0  0  0  0  0  0  0
    7.5596   -1.9565   -1.1522 O   0  0  0  0  0  0  0  0  0  0  0  0
    6.7281    1.6578   -0.1358 C   0  0  0  0  0  0  0  0  0  0  0  0
    7.8060    2.4430    0.3311 C   0  0  0  0  0  0  0  0  0  0  0  0
    7.5426    3.6822    0.9453 C   0  0  0  0  0  0  0  0  0  0  0  0
    6.2470    4.1811    1.0305 C   0  0  0  0  0  0  0  0  0  0  0  0
    5.9269    5.3455    1.8164 N   0  0  0  0  0  0  0  0  0  0  0  0
    6.3623    6.6586    1.4645 C   0  0  0  0  0  0  0  0  0  0  0  0
    6.1792    7.6022    2.2299 O   0  0  0  0  0  0  0  0  0  0  0  0
    6.9838    6.8936    0.1750 C   0  0  0  0  0  0  0  0  0  0  0  0
    7.8683    7.8898   -0.2058 C   0  0  0  0  0  0  0  0  0  0  0  0
    8.1043    7.7255   -1.5893 C   0  0  0  0  0  0  0  0  0  0  0  0
    7.3371    6.6538   -1.9792 C   0  0  0  0  0  0  0  0  0  0  0  0
    6.6499    6.1486   -0.9234 O   0  0  0  0  0  0  0  0  0  0  0  0
    5.5111    5.0257    3.4372 S   0  0  0  0  0  0  0  0  0  0  0  0
    3.9063    5.7982    3.5513 C   0  0  0  0  0  0  0  0  0  0  0  0
    5.2920    3.6054    3.6218 O   0  0  0  0  0  0  0  0  0  0  0  0
    6.4251    5.7319    4.3121 O   0  0  0  0  0  0  0  0  0  0  0  0
    5.1936    3.4299    0.4955 C   0  0  0  0  0  0  0  0  0  0  0  0
    5.4142    2.1379   -0.0509 C   0  0  0  0  0  0  0  0  0  0  0  0
    0.8325    2.6040    1.2874 H   0  0  0  0  0  0  0  0  0  0  0  0
    0.6763    1.0704    0.4107 H   0  0  0  0  0  0  0  0  0  0  0  0
    0.7751    2.6304   -0.4875 H   0  0  0  0  0  0  0  0  0  0  0  0
    3.8203   -1.3152   -1.7221 H   0  0  0  0  0  0  0  0  0  0  0  0
    5.1518   -2.0840   -0.9026 H   0  0  0  0  0  0  0  0  0  0  0  0
    5.3645   -1.4133   -2.5483 H   0  0  0  0  0  0  0  0  0  0  0  0
    8.7620    0.9286   -2.7884 H   0  0  0  0  0  0  0  0  0  0  0  0
    7.5804   -0.2635   -3.4343 H   0  0  0  0  0  0  0  0  0  0  0  0
    9.2643   -0.7572   -3.1059 H   0  0  0  0  0  0  0  0  0  0  0  0
    8.8326    2.0859    0.3032 H   0  0  0  0  0  0  0  0  0  0  0  0
    8.3730    4.2303    1.3848 H   0  0  0  0  0  0  0  0  0  0  0  0
    8.2835    8.6460    0.4504 H   0  0  0  0  0  0  0  0  0  0  0  0
    8.7420    8.3226   -2.2265 H   0  0  0  0  0  0  0  0  0  0  0  0
    7.1696    6.1585   -2.9243 H   0  0  0  0  0  0  0  0  0  0  0  0
    3.2183    5.2827    2.8784 H   0  0  0  0  0  0  0  0  0  0  0  0
    3.9730    6.8580    3.3064 H   0  0  0  0  0  0  0  0  0  0  0  0
    3.5588    5.6875    4.5819 H   0  0  0  0  0  0  0  0  0  0  0  0
    4.1821    3.8209    0.5574 H   0  0  0  0  0  0  0  0  0  0  0  0
  1  2  1  0  0  0  0
  1 31  1  0  0  0  0
  1 32  1  0  0  0  0
  1 33  1  0  0  0  0
  2  3  1  0  0  0  0
  3  4  2  0  0  0  0
  3  5  1  0  0  0  0
  5  6  2  0  0  0  0
  5 30  1  0  0  0  0
  6  7  1  0  0  0  0
  6  8  1  0  0  0  0
  7 34  1  0  0  0  0
  7 35  1  0  0  0  0
  7 36  1  0  0  0  0
  8  9  1  0  0  0  0
  8 13  1  0  0  0  0
  9 10  1  0  0  0  0
  9 11  2  0  0  0  0
  9 12  2  0  0  0  0
 10 37  1  0  0  0  0
 10 38  1  0  0  0  0
 10 39  1  0  0  0  0
 13 14  1  0  0  0  0
 13 30  2  0  0  0  0
 14 15  2  0  0  0  0
 14 40  1  0  0  0  0
 15 16  1  0  0  0  0
 15 41  1  0  0  0  0
 16 17  1  0  0  0  0
 16 29  2  0  0  0  0
 17 18  1  0  0  0  0
 17 25  1  0  0  0  0
 18 19  2  0  0  0  0
 18 20  1  0  0  0  0
 20 21  2  0  0  0  0
 20 24  1  0  0  0  0
 21 22  1  0  0  0  0
 21 42  1  0  0  0  0
 22 23  2  0  0  0  0
 22 43  1  0  0  0  0
 23 24  1  0  0  0  0
 23 44  1  0  0  0  0
 25 26  1  0  0  0  0
 25 27  2  0  0  0  0
 25 28  2  0  0  0  0
 26 45  1  0  0  0  0
 26 46  1  0  0  0  0
 26 47  1  0  0  0  0
 29 30  1  0  0  0  0
 29 48  1  0  0  0  0
M  END
$$$$
