
 OpenBabel07202414163D

 67 69  0  0  1  0  0  0  0  0999 V2000
    1.8793   -0.8308    1.7410 C   0  0  0  0  0  0  0  0  0  0  0  0
    0.7423   -0.4294    0.8567 C   0  0  0  0  0  0  0  0  0  0  0  0
    0.0994    0.7965    1.0324 C   0  0  0  0  0  0  0  0  0  0  0  0
   -0.8743    1.2418    0.1333 C   0  0  0  0  0  0  0  0  0  0  0  0
   -1.2274    0.3454   -0.8730 C   0  0  0  0  0  0  0  0  0  0  0  0
   -0.6741   -0.8793   -1.0457 N   0  0  0  0  0  0  0  0  0  0  0  0
    0.3034   -1.2341   -0.1820 C   0  0  0  0  0  0  0  0  0  0  0  0
   -1.5871    2.5820    0.2690 C   0  0  3  0  0  0  0  0  0  0  0  0
   -2.5141    2.5928    1.5280 C   0  0  0  0  0  0  0  0  0  0  0  0
   -2.1242    2.3792    2.6750 O   0  0  0  0  0  0  0  0  0  0  0  0
   -3.8589    2.8523    1.2883 N   0  0  0  0  0  0  0  0  0  0  0  0
   -4.7637    2.9013    2.4274 C   0  0  0  0  0  0  0  0  0  0  0  0
   -6.2270    3.0478    2.0233 C   0  0  0  0  0  0  0  0  0  0  0  0
   -7.1456    3.0735    3.2240 C   0  0  0  0  0  0  0  0  0  0  0  0
   -7.6699    1.8797    3.7399 C   0  0  0  0  0  0  0  0  0  0  0  0
   -8.5115    1.9031    4.8590 C   0  0  0  0  0  0  0  0  0  0  0  0
   -8.8214    3.1155    5.4744 C   0  0  0  0  0  0  0  0  0  0  0  0
   -8.2885    4.2919    4.9726 C   0  0  0  0  0  0  0  0  0  0  0  0
   -7.4485    4.2822    3.8585 C   0  0  0  0  0  0  0  0  0  0  0  0
   -8.5752    5.4557    5.5679 F   0  0  0  0  0  0  0  0  0  0  0  0
   -0.7244    3.7980    0.1585 N   0  0  0  0  0  0  0  0  0  0  0  0
   -0.9519    4.6714   -0.9524 C   0  0  0  0  0  0  0  0  0  0  0  0
   -0.6396    4.2686   -2.2516 C   0  0  0  0  0  0  0  0  0  0  0  0
   -0.6146    5.2130   -3.2957 C   0  0  0  0  0  0  0  0  0  0  0  0
   -0.9139    6.5713   -3.0722 C   0  0  0  0  0  0  0  0  0  0  0  0
   -1.3145    6.9280   -1.7727 C   0  0  0  0  0  0  0  0  0  0  0  0
   -1.3315    5.9960   -0.7298 C   0  0  0  0  0  0  0  0  0  0  0  0
   -0.7858    7.6579   -4.1614 C   0  0  0  0  0  0  0  0  0  0  0  0
   -0.2682    7.1227   -5.5150 C   0  0  0  0  0  0  0  0  0  0  0  0
   -2.1584    8.3168   -4.4161 C   0  0  0  0  0  0  0  0  0  0  0  0
    0.2083    8.7549   -3.7076 C   0  0  0  0  0  0  0  0  0  0  0  0
    0.1696    4.1482    1.1764 C   0  0  0  0  0  0  0  0  0  0  0  0
    0.2809    3.5652    2.2501 O   0  0  0  0  0  0  0  0  0  0  0  0
    1.0784    5.3112    0.9299 C   0  0  0  0  0  0  0  0  0  0  0  0
    1.4943    6.0496    1.9676 C   0  0  0  0  0  0  0  0  0  0  0  0
    2.1459   -0.0262    2.4346 H   0  0  0  0  0  0  0  0  0  0  0  0
    2.7649   -1.0367    1.1312 H   0  0  0  0  0  0  0  0  0  0  0  0
    1.6271   -1.7181    2.3295 H   0  0  0  0  0  0  0  0  0  0  0  0
    0.3630    1.3916    1.9012 H   0  0  0  0  0  0  0  0  0  0  0  0
   -2.0035    0.5775   -1.5980 H   0  0  0  0  0  0  0  0  0  0  0  0
    0.7407   -2.2133   -0.3582 H   0  0  0  0  0  0  0  0  0  0  0  0
   -2.2787    2.6383   -0.5853 H   0  0  0  0  0  0  0  0  0  0  0  0
   -4.1285    3.2963    0.4205 H   0  0  0  0  0  0  0  0  0  0  0  0
   -4.4482    3.7366    3.0645 H   0  0  0  0  0  0  0  0  0  0  0  0
   -4.6202    1.9816    3.0108 H   0  0  0  0  0  0  0  0  0  0  0  0
   -6.5199    2.2275    1.3564 H   0  0  0  0  0  0  0  0  0  0  0  0
   -6.3651    3.9657    1.4383 H   0  0  0  0  0  0  0  0  0  0  0  0
   -7.4345    0.9251    3.2774 H   0  0  0  0  0  0  0  0  0  0  0  0
   -8.9185    0.9731    5.2509 H   0  0  0  0  0  0  0  0  0  0  0  0
   -9.4689    3.1445    6.3463 H   0  0  0  0  0  0  0  0  0  0  0  0
   -7.0453    5.2263    3.5004 H   0  0  0  0  0  0  0  0  0  0  0  0
   -0.3207    3.2496   -2.4598 H   0  0  0  0  0  0  0  0  0  0  0  0
   -0.3053    4.8625   -4.2777 H   0  0  0  0  0  0  0  0  0  0  0  0
   -1.5792    7.9576   -1.5387 H   0  0  0  0  0  0  0  0  0  0  0  0
   -1.5975    6.3324    0.2702 H   0  0  0  0  0  0  0  0  0  0  0  0
   -0.9455    6.3743   -5.9381 H   0  0  0  0  0  0  0  0  0  0  0  0
    0.7250    6.6692   -5.4142 H   0  0  0  0  0  0  0  0  0  0  0  0
   -0.1789    7.9306   -6.2518 H   0  0  0  0  0  0  0  0  0  0  0  0
   -2.8934    7.5807   -4.7581 H   0  0  0  0  0  0  0  0  0  0  0  0
   -2.0838    9.0969   -5.1841 H   0  0  0  0  0  0  0  0  0  0  0  0
   -2.5610    8.7943   -3.5159 H   0  0  0  0  0  0  0  0  0  0  0  0
    1.1999    8.3343   -3.5049 H   0  0  0  0  0  0  0  0  0  0  0  0
   -0.1241    9.2704   -2.7997 H   0  0  0  0  0  0  0  0  0  0  0  0
    0.3274    9.5234   -4.4819 H   0  0  0  0  0  0  0  0  0  0  0  0
    1.3920    5.5347   -0.0813 H   0  0  0  0  0  0  0  0  0  0  0  0
    1.1857    5.8139    2.9842 H   0  0  0  0  0  0  0  0  0  0  0  0
    2.1457    6.9030    1.8254 H   0  0  0  0  0  0  0  0  0  0  0  0
  1  2  1  0  0  0  0
  1 36  1  0  0  0  0
  1 37  1  0  0  0  0
  1 38  1  0  0  0  0
  2  3  1  0  0  0  0
  2  7  2  0  0  0  0
  3  4  2  0  0  0  0
  3 39  1  0  0  0  0
  4  5  1  0  0  0  0
  4  8  1  0  0  0  0
  5  6  2  0  0  0  0
  5 40  1  0  0  0  0
  6  7  1  0  0  0  0
  7 41  1  0  0  0  0
  8  9  1  0  0  0  0
  8 21  1  0  0  0  0
  8 42  1  0  0  0  0
  9 10  2  0  0  0  0
  9 11  1  0  0  0  0
 11 12  1  0  0  0  0
 11 43  1  0  0  0  0
 12 13  1  0  0  0  0
 12 44  1  0  0  0  0
 12 45  1  0  0  0  0
 13 14  1  0  0  0  0
 13 46  1  0  0  0  0
 13 47  1  0  0  0  0
 14 15  1  0  0  0  0
 14 19  2  0  0  0  0
 15 16  2  0  0  0  0
 15 48  1  0  0  0  0
 16 17  1  0  0  0  0
 16 49  1  0  0  0  0
 17 18  2  0  0  0  0
 17 50  1  0  0  0  0
 18 19  1  0  0  0  0
 18 20  1  0  0  0  0
 19 51  1  0  0  0  0
 21 22  1  0  0  0  0
 21 32  1  0  0  0  0
 22 23  1  0  0  0  0
 22 27  2  0  0  0  0
 23 24  2  0  0  0  0
 23 52  1  0  0  0  0
 24 25  1  0  0  0  0
 24 53  1  0  0  0  0
 25 26  2  0  0  0  0
 25 28  1  0  0  0  0
 26 27  1  0  0  0  0
 26 54  1  0  0  0  0
 27 55  1  0  0  0  0
 28 29  1  0  0  0  0
 28 30  1  0  0  0  0
 28 31  1  0  0  0  0
 29 56  1  0  0  0  0
 29 57  1  0  0  0  0
 29 58  1  0  0  0  0
 30 59  1  0  0  0  0
 30 60  1  0  0  0  0
 30 61  1  0  0  0  0
 31 62  1  0  0  0  0
 31 63  1  0  0  0  0
 31 64  1  0  0  0  0
 32 33  2  0  0  0  0
 32 34  1  0  0  0  0
 34 35  2  0  0  0  0
 34 65  1  0  0  0  0
 35 66  1  0  0  0  0
 35 67  1  0  0  0  0
M  END
$$$$
