
 OpenBabel07202414123D

 44 46  0  0  0  0  0  0  0  0999 V2000
    3.4934    0.8823   -0.6593 C   0  0  0  0  0  0  0  0  0  0  0  0
    2.3160    0.0566   -0.1245 C   0  0  0  0  0  0  0  0  0  0  0  0
    1.5353    0.8451    0.9367 C   0  0  0  0  0  0  0  0  0  0  0  0
    1.4280   -0.1695   -1.2263 O   0  0  0  0  0  0  0  0  0  0  0  0
    2.7949   -1.2736    0.4455 C   0  0  0  0  0  0  0  0  0  0  0  0
    3.7273   -1.3009    1.4907 C   0  0  0  0  0  0  0  0  0  0  0  0
    4.1497   -2.5056    2.0542 C   0  0  0  0  0  0  0  0  0  0  0  0
    3.6516   -3.7468    1.6054 C   0  0  0  0  0  0  0  0  0  0  0  0
    3.9783   -4.9882    2.1996 C   0  0  0  0  0  0  0  0  0  0  0  0
    4.9327   -5.0572    3.2459 N   0  0  0  0  0  0  0  0  0  0  0  0
    4.7410   -5.8151    4.3886 C   0  0  0  0  0  0  0  0  0  0  0  0
    3.7286   -6.4638    4.6378 O   0  0  0  0  0  0  0  0  0  0  0  0
    5.9139   -5.7664    5.3528 C   0  0  0  0  0  0  0  0  0  0  0  0
    5.9475   -4.5620    6.2683 C   0  0  0  0  0  0  0  0  0  0  0  0
    4.8884   -4.2926    7.1477 C   0  0  0  0  0  0  0  0  0  0  0  0
    4.9707   -3.2332    8.0586 C   0  0  0  0  0  0  0  0  0  0  0  0
    6.1110   -2.4319    8.1050 C   0  0  0  0  0  0  0  0  0  0  0  0
    7.1659   -2.6920    7.2358 C   0  0  0  0  0  0  0  0  0  0  0  0
    8.5848   -1.7200    7.2987 Cl  0  0  0  0  0  0  0  0  0  0  0  0
    7.0906   -3.7474    6.3236 C   0  0  0  0  0  0  0  0  0  0  0  0
    3.3572   -6.1375    1.7085 C   0  0  0  0  0  0  0  0  0  0  0  0
    2.4855   -6.1512    0.6740 N   0  0  0  0  0  0  0  0  0  0  0  0
    2.1838   -4.9516    0.1289 C   0  0  0  0  0  0  0  0  0  0  0  0
    2.7125   -3.7265    0.5500 C   0  0  0  0  0  0  0  0  0  0  0  0
    2.3043   -2.5035   -0.0199 C   0  0  0  0  0  0  0  0  0  0  0  0
    3.1408    1.8056   -1.1333 H   0  0  0  0  0  0  0  0  0  0  0  0
    4.0390    0.3245   -1.4296 H   0  0  0  0  0  0  0  0  0  0  0  0
    4.2031    1.1572    0.1277 H   0  0  0  0  0  0  0  0  0  0  0  0
    1.1681    1.7939    0.5285 H   0  0  0  0  0  0  0  0  0  0  0  0
    2.1423    1.0705    1.8200 H   0  0  0  0  0  0  0  0  0  0  0  0
    0.6511    0.2860    1.2662 H   0  0  0  0  0  0  0  0  0  0  0  0
    1.1251    0.6982   -1.5429 H   0  0  0  0  0  0  0  0  0  0  0  0
    4.1267   -0.3757    1.9004 H   0  0  0  0  0  0  0  0  0  0  0  0
    4.8433   -2.4426    2.8869 H   0  0  0  0  0  0  0  0  0  0  0  0
    5.5927   -4.2957    3.3221 H   0  0  0  0  0  0  0  0  0  0  0  0
    6.8385   -5.8284    4.7654 H   0  0  0  0  0  0  0  0  0  0  0  0
    5.8851   -6.6750    5.9665 H   0  0  0  0  0  0  0  0  0  0  0  0
    3.9972   -4.9204    7.1483 H   0  0  0  0  0  0  0  0  0  0  0  0
    4.1490   -3.0453    8.7485 H   0  0  0  0  0  0  0  0  0  0  0  0
    6.1759   -1.6225    8.8276 H   0  0  0  0  0  0  0  0  0  0  0  0
    7.9391   -3.9461    5.6727 H   0  0  0  0  0  0  0  0  0  0  0  0
    3.5810   -7.1201    2.1153 H   0  0  0  0  0  0  0  0  0  0  0  0
    1.4608   -4.9998   -0.6824 H   0  0  0  0  0  0  0  0  0  0  0  0
    1.5677   -2.5158   -0.8242 H   0  0  0  0  0  0  0  0  0  0  0  0
  1  2  1  0  0  0  0
  1 26  1  0  0  0  0
  1 27  1  0  0  0  0
  1 28  1  0  0  0  0
  2  3  1  0  0  0  0
  2  4  1  0  0  0  0
  2  5  1  0  0  0  0
  3 29  1  0  0  0  0
  3 30  1  0  0  0  0
  3 31  1  0  0  0  0
  4 32  1  0  0  0  0
  5  6  1  0  0  0  0
  5 25  2  0  0  0  0
  6  7  2  0  0  0  0
  6 33  1  0  0  0  0
  7  8  1  0  0  0  0
  7 34  1  0  0  0  0
  8  9  1  0  0  0  0
  8 24  2  0  0  0  0
  9 10  1  0  0  0  0
  9 21  2  0  0  0  0
 10 11  1  0  0  0  0
 10 35  1  0  0  0  0
 11 12  2  0  0  0  0
 11 13  1  0  0  0  0
 13 14  1  0  0  0  0
 13 36  1  0  0  0  0
 13 37  1  0  0  0  0
 14 15  1  0  0  0  0
 14 20  2  0  0  0  0
 15 16  2  0  0  0  0
 15 38  1  0  0  0  0
 16 17  1  0  0  0  0
 16 39  1  0  0  0  0
 17 18  2  0  0  0  0
 17 40  1  0  0  0  0
 18 19  1  0  0  0  0
 18 20  1  0  0  0  0
 20 41  1  0  0  0  0
 21 22  1  0  0  0  0
 21 42  1  0  0  0  0
 22 23  2  0  0  0  0
 23 24  1  0  0  0  0
 23 43  1  0  0  0  0
 24 25  1  0  0  0  0
 25 44  1  0  0  0  0
M  END
$$$$
