
 OpenBabel07202414153D

 40 43  0  0  1  0  0  0  0  0999 V2000
    1.1253    0.2891   -0.2006 C   0  0  0  0  0  0  0  0  0  0  0  0
    2.6048   -0.0451    0.0012 C   0  0  2  0  0  0  0  0  0  0  0  0
    3.1403   -0.9482   -1.1126 C   0  0  0  0  0  0  0  0  0  0  0  0
    2.6259   -2.2746   -1.0160 O   0  0  0  0  0  0  0  0  0  0  0  0
    2.9619   -2.9417    0.2043 C   0  0  0  0  0  0  0  0  0  0  0  0
    2.4988   -2.1763    1.4404 C   0  0  2  0  0  0  0  0  0  0  0  0
    2.8740   -0.6887    1.3656 C   0  0  0  0  0  0  0  0  0  0  0  0
    2.9989   -2.7011    2.6970 N   0  0  0  0  0  0  0  0  0  0  0  0
    2.0138   -2.7472    3.6688 C   0  0  0  0  0  0  0  0  0  0  0  0
    2.2580   -3.0188    4.8293 O   0  0  0  0  0  0  0  0  0  0  0  0
    0.8071   -2.5106    3.0576 N   0  0  0  0  0  0  0  0  0  0  0  0
   -0.4456   -2.7135    3.6770 C   0  0  0  0  0  0  0  0  0  0  0  0
   -1.3560   -3.6130    3.1144 C   0  0  0  0  0  0  0  0  0  0  0  0
   -2.5443   -3.9444    3.6618 N   0  0  0  0  0  0  0  0  0  0  0  0
   -2.8590   -3.3248    4.8218 C   0  0  0  0  0  0  0  0  0  0  0  0
   -2.0630   -2.3685    5.4534 C   0  0  0  0  0  0  0  0  0  0  0  0
   -2.4814   -1.7327    6.6349 C   0  0  0  0  0  0  0  0  0  0  0  0
   -1.6954   -0.7474    7.2307 C   0  0  0  0  0  0  0  0  0  0  0  0
   -0.4920   -0.3773    6.6446 C   0  0  0  0  0  0  0  0  0  0  0  0
   -0.0648   -1.0083    5.4744 C   0  0  0  0  0  0  0  0  0  0  0  0
   -0.8212   -2.0377    4.8635 C   0  0  0  0  0  0  0  0  0  0  0  0
    0.9960   -2.4017    1.7030 C   0  0  0  0  0  0  0  0  0  0  0  0
    0.1164   -2.4056    0.8523 O   0  0  0  0  0  0  0  0  0  0  0  0
    1.0174    1.0797   -0.9502 H   0  0  0  0  0  0  0  0  0  0  0  0
    0.6650    0.6487    0.7261 H   0  0  0  0  0  0  0  0  0  0  0  0
    0.5514   -0.5640   -0.5680 H   0  0  0  0  0  0  0  0  0  0  0  0
    3.1485    0.9074   -0.0302 H   0  0  0  0  0  0  0  0  0  0  0  0
    4.2356   -0.9904   -1.0865 H   0  0  0  0  0  0  0  0  0  0  0  0
    2.8533   -0.5502   -2.0920 H   0  0  0  0  0  0  0  0  0  0  0  0
    4.0481   -3.0978    0.2247 H   0  0  0  0  0  0  0  0  0  0  0  0
    2.5024   -3.9360    0.1675 H   0  0  0  0  0  0  0  0  0  0  0  0
    3.9559   -0.6080    1.5484 H   0  0  0  0  0  0  0  0  0  0  0  0
    2.3975   -0.1087    2.1653 H   0  0  0  0  0  0  0  0  0  0  0  0
    3.9723   -2.7637    2.9746 H   0  0  0  0  0  0  0  0  0  0  0  0
   -1.1334   -4.1500    2.1961 H   0  0  0  0  0  0  0  0  0  0  0  0
   -3.8179   -3.6240    5.2367 H   0  0  0  0  0  0  0  0  0  0  0  0
   -3.4310   -1.9969    7.0966 H   0  0  0  0  0  0  0  0  0  0  0  0
   -2.0269   -0.2637    8.1457 H   0  0  0  0  0  0  0  0  0  0  0  0
    0.1191    0.3999    7.0942 H   0  0  0  0  0  0  0  0  0  0  0  0
    0.8744   -0.6742    5.0385 H   0  0  0  0  0  0  0  0  0  0  0  0
  1  2  1  0  0  0  0
  1 24  1  0  0  0  0
  1 25  1  0  0  0  0
  1 26  1  0  0  0  0
  2  3  1  0  0  0  0
  2  7  1  0  0  0  0
  2 27  1  6  0  0  0
  3  4  1  0  0  0  0
  3 28  1  0  0  0  0
  3 29  1  0  0  0  0
  4  5  1  0  0  0  0
  5  6  1  0  0  0  0
  5 30  1  0  0  0  0
  5 31  1  0  0  0  0
  6  7  1  0  0  0  0
  6  8  1  0  0  0  0
  6 22  1  1  0  0  0
  7 32  1  0  0  0  0
  7 33  1  0  0  0  0
  8  9  1  0  0  0  0
  8 34  1  0  0  0  0
  9 10  2  0  0  0  0
  9 11  1  0  0  0  0
 11 12  1  0  0  0  0
 11 22  1  0  0  0  0
 12 13  1  0  0  0  0
 12 21  2  0  0  0  0
 13 14  2  0  0  0  0
 13 35  1  0  0  0  0
 14 15  1  0  0  0  0
 15 16  2  0  0  0  0
 15 36  1  0  0  0  0
 16 17  1  0  0  0  0
 16 21  1  0  0  0  0
 17 18  2  0  0  0  0
 17 37  1  0  0  0  0
 18 19  1  0  0  0  0
 18 38  1  0  0  0  0
 19 20  2  0  0  0  0
 19 39  1  0  0  0  0
 20 21  1  0  0  0  0
 20 40  1  0  0  0  0
 22 23  2  0  0  0  0
M  END
$$$$
