
 OpenBabel07202414193D

 46 48  0  0  0  0  0  0  0  0999 V2000
    1.0412   -0.0898   -0.0545 O   0  0  0  0  0  0  0  0  0  0  0  0
    2.2769   -0.0856   -0.1184 C   0  0  0  0  0  0  0  0  0  0  0  0
    3.0700    0.0539    1.1947 C   0  0  0  0  0  0  0  0  0  0  0  0
    3.6662   -1.2281    1.7489 C   0  0  0  0  0  0  0  0  0  0  0  0
    3.8528   -2.3079    0.9013 C   0  0  0  0  0  0  0  0  0  0  0  0
    4.6167   -3.3910    1.1282 N   0  0  0  0  0  0  0  0  0  0  0  0
    5.1361   -3.4900    2.3525 C   0  0  0  0  0  0  0  0  0  0  0  0
    4.8346   -2.6157    3.3822 C   0  0  0  0  0  0  0  0  0  0  0  0
    5.2103   -2.9462    4.6784 C   0  0  0  0  0  0  0  0  0  0  0  0
    4.7950   -2.1448    5.7387 C   0  0  0  0  0  0  0  0  0  0  0  0
    4.0848   -0.9718    5.4850 C   0  0  0  0  0  0  0  0  0  0  0  0
    3.7682   -0.5979    4.1708 C   0  0  0  0  0  0  0  0  0  0  0  0
    4.0892   -1.4346    3.0831 C   0  0  0  0  0  0  0  0  0  0  0  0
    2.9195   -0.2348   -1.3564 N   0  0  0  0  0  0  0  0  0  0  0  0
    2.0702   -0.5547   -2.5145 C   0  0  0  0  0  0  0  0  0  0  0  0
    1.1741    0.5573   -3.0281 C   0  0  0  0  0  0  0  0  0  0  0  0
    0.4386    0.0781   -4.2669 C   0  0  0  0  0  0  0  0  0  0  0  0
    0.7159   -1.2077   -4.5794 F   0  0  0  0  0  0  0  0  0  0  0  0
   -0.8990    0.1744   -4.1125 F   0  0  0  0  0  0  0  0  0  0  0  0
    0.7794    0.8289   -5.3390 F   0  0  0  0  0  0  0  0  0  0  0  0
    4.3840   -0.2743   -1.5875 C   0  0  0  0  0  0  0  0  0  0  0  0
    5.0077   -1.6313   -1.9353 C   0  0  0  0  0  0  0  0  0  0  0  0
    4.2792   -2.7965   -2.2513 C   0  0  0  0  0  0  0  0  0  0  0  0
    4.9016   -4.0389   -2.4040 C   0  0  0  0  0  0  0  0  0  0  0  0
    6.2807   -4.1394   -2.2980 C   0  0  0  0  0  0  0  0  0  0  0  0
    7.0339   -2.9949   -2.0513 C   0  0  0  0  0  0  0  0  0  0  0  0
    6.4058   -1.7542   -1.8748 C   0  0  0  0  0  0  0  0  0  0  0  0
    2.3597    0.4633    1.9255 H   0  0  0  0  0  0  0  0  0  0  0  0
    3.8447    0.8201    1.0689 H   0  0  0  0  0  0  0  0  0  0  0  0
    3.3457   -2.3488   -0.0464 H   0  0  0  0  0  0  0  0  0  0  0  0
    5.7750   -4.3571    2.4945 H   0  0  0  0  0  0  0  0  0  0  0  0
    5.7434   -3.8680    4.8885 H   0  0  0  0  0  0  0  0  0  0  0  0
    5.0050   -2.4478    6.7627 H   0  0  0  0  0  0  0  0  0  0  0  0
    3.7451   -0.3611    6.3175 H   0  0  0  0  0  0  0  0  0  0  0  0
    3.1901    0.3124    4.0251 H   0  0  0  0  0  0  0  0  0  0  0  0
    1.4466   -1.4112   -2.2262 H   0  0  0  0  0  0  0  0  0  0  0  0
    2.7174   -0.8717   -3.3392 H   0  0  0  0  0  0  0  0  0  0  0  0
    1.7745    1.4422   -3.2655 H   0  0  0  0  0  0  0  0  0  0  0  0
    0.4488    0.8644   -2.2691 H   0  0  0  0  0  0  0  0  0  0  0  0
    4.8867    0.1162   -0.6968 H   0  0  0  0  0  0  0  0  0  0  0  0
    4.5930    0.4222   -2.4079 H   0  0  0  0  0  0  0  0  0  0  0  0
    3.1950   -2.8062   -2.2829 H   0  0  0  0  0  0  0  0  0  0  0  0
    4.2963   -4.9308   -2.5517 H   0  0  0  0  0  0  0  0  0  0  0  0
    6.7597   -5.1106   -2.3812 H   0  0  0  0  0  0  0  0  0  0  0  0
    8.1138   -3.0760   -1.9610 H   0  0  0  0  0  0  0  0  0  0  0  0
    7.0255   -0.8910   -1.6417 H   0  0  0  0  0  0  0  0  0  0  0  0
  1  2  2  0  0  0  0
  2  3  1  0  0  0  0
  2 14  1  0  0  0  0
  3  4  1  0  0  0  0
  3 28  1  0  0  0  0
  3 29  1  0  0  0  0
  4  5  1  0  0  0  0
  4 13  2  0  0  0  0
  5  6  2  0  0  0  0
  5 30  1  0  0  0  0
  6  7  1  0  0  0  0
  7  8  2  0  0  0  0
  7 31  1  0  0  0  0
  8  9  1  0  0  0  0
  8 13  1  0  0  0  0
  9 10  2  0  0  0  0
  9 32  1  0  0  0  0
 10 11  1  0  0  0  0
 10 33  1  0  0  0  0
 11 12  2  0  0  0  0
 11 34  1  0  0  0  0
 12 13  1  0  0  0  0
 12 35  1  0  0  0  0
 14 15  1  0  0  0  0
 14 21  1  0  0  0  0
 15 16  1  0  0  0  0
 15 36  1  0  0  0  0
 15 37  1  0  0  0  0
 16 17  1  0  0  0  0
 16 38  1  0  0  0  0
 16 39  1  0  0  0  0
 17 18  1  0  0  0  0
 17 19  1  0  0  0  0
 17 20  1  0  0  0  0
 21 22  1  0  0  0  0
 21 40  1  0  0  0  0
 21 41  1  0  0  0  0
 22 23  1  0  0  0  0
 22 27  2  0  0  0  0
 23 24  2  0  0  0  0
 23 42  1  0  0  0  0
 24 25  1  0  0  0  0
 24 43  1  0  0  0  0
 25 26  2  0  0  0  0
 25 44  1  0  0  0  0
 26 27  1  0  0  0  0
 26 45  1  0  0  0  0
 27 46  1  0  0  0  0
M  END
$$$$
