
 OpenBabel07202414123D

 63 68  0  0  1  0  0  0  0  0999 V2000
    5.2817   -2.8426    0.1322 C   0  0  0  0  0  0  0  0  0  0  0  0
    6.4521   -1.9314   -0.2531 C   0  0  0  0  0  0  0  0  0  0  0  0
    6.2647   -1.2735   -1.6373 C   0  0  0  0  0  0  0  0  0  0  0  0
    4.9085   -0.1036   -1.6822 S   0  0  0  0  0  0  0  0  0  0  0  0
    3.6949   -0.8105   -1.3539 O   0  0  0  0  0  0  0  0  0  0  0  0
    5.3575    1.0597   -0.9515 O   0  0  0  0  0  0  0  0  0  0  0  0
    4.8135    0.2873   -3.3209 N   0  0  0  0  0  0  0  0  0  0  0  0
    5.9104    1.0683   -3.9141 C   0  0  0  0  0  0  0  0  0  0  0  0
    5.6465    2.5504   -3.9920 C   0  0  0  0  0  0  0  0  0  0  0  0
    6.7497    3.4213   -4.0564 C   0  0  0  0  0  0  0  0  0  0  0  0
    6.5690    4.8026   -4.0995 C   0  0  0  0  0  0  0  0  0  0  0  0
    5.2837    5.3242   -4.1185 C   0  0  0  0  0  0  0  0  0  0  0  0
    5.0442    7.0272   -4.1384 Cl  0  0  0  0  0  0  0  0  0  0  0  0
    4.1795    4.4754   -4.0874 C   0  0  0  0  0  0  0  0  0  0  0  0
    4.3383    3.0760   -4.0045 C   0  0  0  0  0  0  0  0  0  0  0  0
    3.1185    2.1712   -3.7495 C   0  0  3  0  0  0  0  0  0  0  0  0
    1.9488    2.4433   -4.7372 C   0  0  0  0  0  0  0  0  0  0  0  0
    0.7980    2.9562   -3.8913 C   0  0  0  0  0  0  0  0  0  0  0  0
    1.4041    3.4537   -2.6915 N   0  0  0  0  0  0  0  0  0  0  0  0
    0.6944    4.2747   -1.7543 C   0  0  0  0  0  0  0  0  0  0  0  0
    0.7954    4.0386   -0.3786 C   0  0  0  0  0  0  0  0  0  0  0  0
    0.0368    4.6354    0.5719 N   0  0  0  0  0  0  0  0  0  0  0  0
   -0.8135    5.5874    0.1518 C   0  0  0  0  0  0  0  0  0  0  0  0
   -0.8919    6.0454   -1.1581 C   0  0  0  0  0  0  0  0  0  0  0  0
   -1.6852    7.1685   -1.4612 C   0  0  0  0  0  0  0  0  0  0  0  0
   -1.7364    7.6789   -2.7533 C   0  0  0  0  0  0  0  0  0  0  0  0
   -0.9936    7.0711   -3.7520 C   0  0  0  0  0  0  0  0  0  0  0  0
   -0.1857    5.9670   -3.4500 C   0  0  0  0  0  0  0  0  0  0  0  0
   -0.1239    5.3870   -2.1520 C   0  0  0  0  0  0  0  0  0  0  0  0
    2.5007    2.6144   -2.3979 C   0  0  0  0  0  0  0  0  0  0  0  0
    2.9801    2.3970   -1.2990 O   0  0  0  0  0  0  0  0  0  0  0  0
    3.4791    0.6756   -3.8541 C   0  0  0  0  0  0  0  0  0  0  0  0
    7.7987   -2.7192   -0.2150 C   0  0  0  0  0  0  0  0  0  0  0  0
    8.5801   -1.4549    0.7360 S   0  0  0  0  0  0  0  0  0  0  0  0
    9.1587   -1.9975    1.9502 O   0  0  0  0  0  0  0  0  0  0  0  0
    9.2752   -0.5189   -0.1240 O   0  0  0  0  0  0  0  0  0  0  0  0
    6.8844   -1.0261    0.9485 C   0  0  0  0  0  0  0  0  0  0  0  0
    4.9922   -3.4895   -0.7021 H   0  0  0  0  0  0  0  0  0  0  0  0
    4.4091   -2.2610    0.4430 H   0  0  0  0  0  0  0  0  0  0  0  0
    5.5367   -3.4859    0.9814 H   0  0  0  0  0  0  0  0  0  0  0  0
    6.0735   -2.0328   -2.4019 H   0  0  0  0  0  0  0  0  0  0  0  0
    7.1663   -0.7187   -1.9162 H   0  0  0  0  0  0  0  0  0  0  0  0
    6.0779    0.6945   -4.9333 H   0  0  0  0  0  0  0  0  0  0  0  0
    6.8440    0.8855   -3.3727 H   0  0  0  0  0  0  0  0  0  0  0  0
    7.7643    3.0269   -4.0287 H   0  0  0  0  0  0  0  0  0  0  0  0
    7.4321    5.4620   -4.0961 H   0  0  0  0  0  0  0  0  0  0  0  0
    3.1898    4.9247   -4.0653 H   0  0  0  0  0  0  0  0  0  0  0  0
    1.6153    1.5440   -5.2694 H   0  0  0  0  0  0  0  0  0  0  0  0
    2.2170    3.1716   -5.5101 H   0  0  0  0  0  0  0  0  0  0  0  0
    0.1476    2.1212   -3.5979 H   0  0  0  0  0  0  0  0  0  0  0  0
    0.1848    3.6600   -4.4456 H   0  0  0  0  0  0  0  0  0  0  0  0
    1.4831    3.3136    0.0431 H   0  0  0  0  0  0  0  0  0  0  0  0
   -1.4357    6.0086    0.9374 H   0  0  0  0  0  0  0  0  0  0  0  0
   -2.2374    7.6811   -0.6755 H   0  0  0  0  0  0  0  0  0  0  0  0
   -2.3266    8.5660   -2.9690 H   0  0  0  0  0  0  0  0  0  0  0  0
   -1.0126    7.4718   -4.7628 H   0  0  0  0  0  0  0  0  0  0  0  0
    0.4500    5.6077   -4.2522 H   0  0  0  0  0  0  0  0  0  0  0  0
    3.5237    0.4014   -4.9215 H   0  0  0  0  0  0  0  0  0  0  0  0
    2.6895    0.0395   -3.4410 H   0  0  0  0  0  0  0  0  0  0  0  0
    8.2879   -2.8744   -1.1823 H   0  0  0  0  0  0  0  0  0  0  0  0
    7.7788   -3.6770    0.3152 H   0  0  0  0  0  0  0  0  0  0  0  0
    6.7083    0.0465    0.8574 H   0  0  0  0  0  0  0  0  0  0  0  0
    6.5073   -1.3471    1.9267 H   0  0  0  0  0  0  0  0  0  0  0  0
  1  2  1  0  0  0  0
  1 38  1  0  0  0  0
  1 39  1  0  0  0  0
  1 40  1  0  0  0  0
  2  3  1  0  0  0  0
  2 33  1  0  0  0  0
  2 37  1  0  0  0  0
  3  4  1  0  0  0  0
  3 41  1  0  0  0  0
  3 42  1  0  0  0  0
  4  5  2  0  0  0  0
  4  6  2  0  0  0  0
  4  7  1  0  0  0  0
  7  8  1  0  0  0  0
  7 32  1  0  0  0  0
  8  9  1  0  0  0  0
  8 43  1  0  0  0  0
  8 44  1  0  0  0  0
  9 10  1  0  0  0  0
  9 15  2  0  0  0  0
 10 11  2  0  0  0  0
 10 45  1  0  0  0  0
 11 12  1  0  0  0  0
 11 46  1  0  0  0  0
 12 13  1  0  0  0  0
 12 14  2  0  0  0  0
 14 15  1  0  0  0  0
 14 47  1  0  0  0  0
 15 16  1  0  0  0  0
 16 17  1  0  0  0  0
 16 30  1  0  0  0  0
 16 32  1  0  0  0  0
 17 18  1  0  0  0  0
 17 48  1  0  0  0  0
 17 49  1  0  0  0  0
 18 19  1  0  0  0  0
 18 50  1  0  0  0  0
 18 51  1  0  0  0  0
 19 20  1  0  0  0  0
 19 30  1  0  0  0  0
 20 21  1  0  0  0  0
 20 29  2  0  0  0  0
 21 22  2  0  0  0  0
 21 52  1  0  0  0  0
 22 23  1  0  0  0  0
 23 24  2  0  0  0  0
 23 53  1  0  0  0  0
 24 25  1  0  0  0  0
 24 29  1  0  0  0  0
 25 26  2  0  0  0  0
 25 54  1  0  0  0  0
 26 27  1  0  0  0  0
 26 55  1  0  0  0  0
 27 28  2  0  0  0  0
 27 56  1  0  0  0  0
 28 29  1  0  0  0  0
 28 57  1  0  0  0  0
 30 31  2  0  0  0  0
 32 58  1  0  0  0  0
 32 59  1  0  0  0  0
 33 34  1  0  0  0  0
 33 60  1  0  0  0  0
 33 61  1  0  0  0  0
 34 35  2  0  0  0  0
 34 36  2  0  0  0  0
 34 37  1  0  0  0  0
 37 62  1  0  0  0  0
 37 63  1  0  0  0  0
M  END
$$$$
