
 OpenBabel07202414203D

 34 36  0  0  0  0  0  0  0  0999 V2000
    4.2492   -1.1860   -0.7740 C   0  0  0  0  0  0  0  0  0  0  0  0
    4.4573    0.1826   -0.8894 C   0  0  0  0  0  0  0  0  0  0  0  0
    3.4092    1.0837   -0.6383 C   0  0  0  0  0  0  0  0  0  0  0  0
    2.1079    0.6437   -0.2708 C   0  0  0  0  0  0  0  0  0  0  0  0
    1.9338   -0.7632   -0.1708 C   0  0  0  0  0  0  0  0  0  0  0  0
    2.9932   -1.6555   -0.4110 C   0  0  0  0  0  0  0  0  0  0  0  0
    0.6832   -1.2594    0.1786 C   0  0  0  0  0  0  0  0  0  0  0  0
   -0.4032   -0.5017    0.4014 N   0  0  0  0  0  0  0  0  0  0  0  0
   -0.2285    0.8351    0.3113 C   0  0  0  0  0  0  0  0  0  0  0  0
    0.9785    1.4778    0.0133 C   0  0  0  0  0  0  0  0  0  0  0  0
    1.0688    2.9043   -0.0163 N   0  0  0  0  0  0  0  0  0  0  0  0
    0.1391    3.7801    0.5447 C   0  0  0  0  0  0  0  0  0  0  0  0
   -0.8453    3.4491    1.1984 O   0  0  0  0  0  0  0  0  0  0  0  0
    0.4311    5.2573    0.3274 C   0  0  0  0  0  0  0  0  0  0  0  0
    1.2319    5.8695    1.4478 C   0  0  0  0  0  0  0  0  0  0  0  0
    0.6814    6.8278    2.3165 C   0  0  0  0  0  0  0  0  0  0  0  0
    1.4566    7.3667    3.3476 C   0  0  0  0  0  0  0  0  0  0  0  0
    2.7800    6.9589    3.5295 C   0  0  0  0  0  0  0  0  0  0  0  0
    3.3340    6.0119    2.6670 C   0  0  0  0  0  0  0  0  0  0  0  0
    2.5624    5.4860    1.6371 C   0  0  0  0  0  0  0  0  0  0  0  0
    3.1161    4.5928    0.8047 F   0  0  0  0  0  0  0  0  0  0  0  0
    0.7860    8.5533    4.3980 Cl  0  0  0  0  0  0  0  0  0  0  0  0
    5.0587   -1.8876   -0.9650 H   0  0  0  0  0  0  0  0  0  0  0  0
    5.4390    0.5512   -1.1764 H   0  0  0  0  0  0  0  0  0  0  0  0
    3.6345    2.1422   -0.7378 H   0  0  0  0  0  0  0  0  0  0  0  0
    2.8408   -2.7304   -0.3202 H   0  0  0  0  0  0  0  0  0  0  0  0
    0.5074   -2.3273    0.2858 H   0  0  0  0  0  0  0  0  0  0  0  0
   -1.1509    1.3832    0.4723 H   0  0  0  0  0  0  0  0  0  0  0  0
    1.9536    3.3067   -0.3019 H   0  0  0  0  0  0  0  0  0  0  0  0
   -0.5413    5.7619    0.2391 H   0  0  0  0  0  0  0  0  0  0  0  0
    0.9363    5.4150   -0.6307 H   0  0  0  0  0  0  0  0  0  0  0  0
   -0.3518    7.1519    2.1990 H   0  0  0  0  0  0  0  0  0  0  0  0
    3.3822    7.3781    4.3298 H   0  0  0  0  0  0  0  0  0  0  0  0
    4.3603    5.6833    2.7922 H   0  0  0  0  0  0  0  0  0  0  0  0
  1  2  1  0  0  0  0
  1  6  2  0  0  0  0
  1 23  1  0  0  0  0
  2  3  2  0  0  0  0
  2 24  1  0  0  0  0
  3  4  1  0  0  0  0
  3 25  1  0  0  0  0
  4  5  1  0  0  0  0
  4 10  2  0  0  0  0
  5  6  1  0  0  0  0
  5  7  2  0  0  0  0
  6 26  1  0  0  0  0
  7  8  1  0  0  0  0
  7 27  1  0  0  0  0
  8  9  2  0  0  0  0
  9 10  1  0  0  0  0
  9 28  1  0  0  0  0
 10 11  1  0  0  0  0
 11 12  1  0  0  0  0
 11 29  1  0  0  0  0
 12 13  2  0  0  0  0
 12 14  1  0  0  0  0
 14 15  1  0  0  0  0
 14 30  1  0  0  0  0
 14 31  1  0  0  0  0
 15 16  1  0  0  0  0
 15 20  2  0  0  0  0
 16 17  2  0  0  0  0
 16 32  1  0  0  0  0
 17 18  1  0  0  0  0
 17 22  1  0  0  0  0
 18 19  2  0  0  0  0
 18 33  1  0  0  0  0
 19 20  1  0  0  0  0
 19 34  1  0  0  0  0
 20 21  1  0  0  0  0
M  END
$$$$
