
 OpenBabel07202414193D

 47 50  0  0  0  0  0  0  0  0999 V2000
    1.4316    0.2130   -0.8945 O   0  0  0  0  0  0  0  0  0  0  0  0
    2.3808   -0.0231   -0.1410 C   0  0  0  0  0  0  0  0  0  0  0  0
    2.7413    0.9735    0.9520 C   0  0  0  0  0  0  0  0  0  0  0  0
    2.1032    0.7536    2.3045 C   0  0  0  0  0  0  0  0  0  0  0  0
    0.7853    0.2958    2.3864 C   0  0  0  0  0  0  0  0  0  0  0  0
    0.1100    0.1053    3.5394 N   0  0  0  0  0  0  0  0  0  0  0  0
    0.7657    0.4098    4.6788 C   0  0  0  0  0  0  0  0  0  0  0  0
    2.0758    0.8870    4.7393 C   0  0  0  0  0  0  0  0  0  0  0  0
    2.6893    1.1826    5.9703 C   0  0  0  0  0  0  0  0  0  0  0  0
    3.9990    1.6521    6.0184 C   0  0  0  0  0  0  0  0  0  0  0  0
    4.7073    1.8357    4.8408 C   0  0  0  0  0  0  0  0  0  0  0  0
    4.0973    1.5510    3.6107 C   0  0  0  0  0  0  0  0  0  0  0  0
    2.7730    1.0672    3.5232 C   0  0  0  0  0  0  0  0  0  0  0  0
    3.2040   -1.1541   -0.2803 N   0  0  0  0  0  0  0  0  0  0  0  0
    2.9787   -1.9597   -1.4914 C   0  0  0  0  0  0  0  0  0  0  0  0
    4.2581   -2.5565   -2.1000 C   0  0  0  0  0  0  0  0  0  0  0  0
    4.4994   -4.0656   -1.8969 C   0  0  0  0  0  0  0  0  0  0  0  0
    3.5911   -4.7142   -0.8827 C   0  0  0  0  0  0  0  0  0  0  0  0
    2.7123   -5.7230   -1.3065 C   0  0  0  0  0  0  0  0  0  0  0  0
    1.7115   -6.1900   -0.4597 C   0  0  0  0  0  0  0  0  0  0  0  0
    1.5856   -5.6630    0.8223 C   0  0  0  0  0  0  0  0  0  0  0  0
    2.4878   -4.6996    1.2754 C   0  0  0  0  0  0  0  0  0  0  0  0
    3.5099   -4.2285    0.4381 C   0  0  0  0  0  0  0  0  0  0  0  0
    4.4331   -3.1347    0.9181 C   0  0  0  0  0  0  0  0  0  0  0  0
    3.8083   -1.7358    0.9352 C   0  0  0  0  0  0  0  0  0  0  0  0
    2.4495    1.9696    0.5951 H   0  0  0  0  0  0  0  0  0  0  0  0
    3.8319    0.9938    1.0070 H   0  0  0  0  0  0  0  0  0  0  0  0
    0.2072    0.0509    1.4966 H   0  0  0  0  0  0  0  0  0  0  0  0
    0.1808    0.2604    5.5839 H   0  0  0  0  0  0  0  0  0  0  0  0
    2.1457    1.0524    6.9039 H   0  0  0  0  0  0  0  0  0  0  0  0
    4.4637    1.8764    6.9750 H   0  0  0  0  0  0  0  0  0  0  0  0
    5.7292    2.2033    4.8669 H   0  0  0  0  0  0  0  0  0  0  0  0
    4.6962    1.7277    2.7211 H   0  0  0  0  0  0  0  0  0  0  0  0
    2.5600   -1.2978   -2.2604 H   0  0  0  0  0  0  0  0  0  0  0  0
    2.1784   -2.6774   -1.2905 H   0  0  0  0  0  0  0  0  0  0  0  0
    5.1370   -1.9970   -1.7549 H   0  0  0  0  0  0  0  0  0  0  0  0
    4.2289   -2.3858   -3.1848 H   0  0  0  0  0  0  0  0  0  0  0  0
    5.5451   -4.2434   -1.6158 H   0  0  0  0  0  0  0  0  0  0  0  0
    4.3836   -4.5638   -2.8686 H   0  0  0  0  0  0  0  0  0  0  0  0
    2.7699   -6.1136   -2.3205 H   0  0  0  0  0  0  0  0  0  0  0  0
    1.0088   -6.9396   -0.8135 H   0  0  0  0  0  0  0  0  0  0  0  0
    0.7744   -5.9931    1.4656 H   0  0  0  0  0  0  0  0  0  0  0  0
    2.3626   -4.2917    2.2762 H   0  0  0  0  0  0  0  0  0  0  0  0
    5.3702   -3.1248    0.3525 H   0  0  0  0  0  0  0  0  0  0  0  0
    4.7446   -3.3827    1.9425 H   0  0  0  0  0  0  0  0  0  0  0  0
    4.5929   -1.0385    1.2542 H   0  0  0  0  0  0  0  0  0  0  0  0
    3.0400   -1.7224    1.7152 H   0  0  0  0  0  0  0  0  0  0  0  0
  1  2  2  0  0  0  0
  2  3  1  0  0  0  0
  2 14  1  0  0  0  0
  3  4  1  0  0  0  0
  3 26  1  0  0  0  0
  3 27  1  0  0  0  0
  4  5  1  0  0  0  0
  4 13  2  0  0  0  0
  5  6  2  0  0  0  0
  5 28  1  0  0  0  0
  6  7  1  0  0  0  0
  7  8  2  0  0  0  0
  7 29  1  0  0  0  0
  8  9  1  0  0  0  0
  8 13  1  0  0  0  0
  9 10  2  0  0  0  0
  9 30  1  0  0  0  0
 10 11  1  0  0  0  0
 10 31  1  0  0  0  0
 11 12  2  0  0  0  0
 11 32  1  0  0  0  0
 12 13  1  0  0  0  0
 12 33  1  0  0  0  0
 14 15  1  0  0  0  0
 14 25  1  0  0  0  0
 15 16  1  0  0  0  0
 15 34  1  0  0  0  0
 15 35  1  0  0  0  0
 16 17  1  0  0  0  0
 16 36  1  0  0  0  0
 16 37  1  0  0  0  0
 17 18  1  0  0  0  0
 17 38  1  0  0  0  0
 17 39  1  0  0  0  0
 18 19  1  0  0  0  0
 18 23  2  0  0  0  0
 19 20  2  0  0  0  0
 19 40  1  0  0  0  0
 20 21  1  0  0  0  0
 20 41  1  0  0  0  0
 21 22  2  0  0  0  0
 21 42  1  0  0  0  0
 22 23  1  0  0  0  0
 22 43  1  0  0  0  0
 23 24  1  0  0  0  0
 24 25  1  0  0  0  0
 24 44  1  0  0  0  0
 24 45  1  0  0  0  0
 25 46  1  0  0  0  0
 25 47  1  0  0  0  0
M  END
$$$$
