
 OpenBabel07202414153D

 43 46  0  0  1  0  0  0  0  0999 V2000
    2.3566   -1.4148    0.5565 C   0  0  0  0  0  0  0  0  0  0  0  0
    2.6313   -0.1344   -0.0048 O   0  0  0  0  0  0  0  0  0  0  0  0
    3.3239    0.8131    0.8343 C   0  0  2  0  0  0  0  0  0  0  0  0
    4.7596    0.3004    1.2334 C   0  0  0  0  0  0  0  0  0  0  0  0
    5.3066    0.6218    2.2842 O   0  0  0  0  0  0  0  0  0  0  0  0
    5.3184   -0.5257    0.2629 N   0  0  0  0  0  0  0  0  0  0  0  0
    6.6241   -1.0740    0.2241 C   0  0  0  0  0  0  0  0  0  0  0  0
    7.5628   -0.8465    1.2314 C   0  0  0  0  0  0  0  0  0  0  0  0
    8.8571   -1.2287    1.1733 N   0  0  0  0  0  0  0  0  0  0  0  0
    9.2356   -1.9037    0.0709 C   0  0  0  0  0  0  0  0  0  0  0  0
    8.3747   -2.2870   -0.9554 C   0  0  0  0  0  0  0  0  0  0  0  0
    8.8373   -3.0805   -2.0207 C   0  0  0  0  0  0  0  0  0  0  0  0
    7.9713   -3.4926   -3.0290 C   0  0  0  0  0  0  0  0  0  0  0  0
    6.6424   -3.0933   -2.9969 C   0  0  0  0  0  0  0  0  0  0  0  0
    6.1759   -2.2887   -1.9504 C   0  0  0  0  0  0  0  0  0  0  0  0
    7.0200   -1.8708   -0.8907 C   0  0  0  0  0  0  0  0  0  0  0  0
    2.5462    1.1371    2.1288 C   0  0  0  0  0  0  0  0  0  0  0  0
    1.3149    1.9592    1.8085 C   0  0  0  0  0  0  0  0  0  0  0  0
    1.6651    3.2315    1.2733 O   0  0  0  0  0  0  0  0  0  0  0  0
    2.5768    3.1880    0.2546 C   0  0  0  0  0  0  0  0  0  0  0  0
    2.6458    4.3589   -0.5110 C   0  0  0  0  0  0  0  0  0  0  0  0
    3.5316    4.4488   -1.5799 C   0  0  0  0  0  0  0  0  0  0  0  0
    4.3466    3.3648   -1.8787 C   0  0  0  0  0  0  0  0  0  0  0  0
    5.4419    3.4548   -3.2032 Cl  0  0  0  0  0  0  0  0  0  0  0  0
    4.2892    2.1971   -1.1093 C   0  0  0  0  0  0  0  0  0  0  0  0
    3.4119    2.0899   -0.0114 C   0  0  0  0  0  0  0  0  0  0  0  0
    1.8999   -2.0269   -0.2269 H   0  0  0  0  0  0  0  0  0  0  0  0
    1.6497   -1.3513    1.3849 H   0  0  0  0  0  0  0  0  0  0  0  0
    3.2679   -1.9241    0.8803 H   0  0  0  0  0  0  0  0  0  0  0  0
    4.7130   -0.7022   -0.5286 H   0  0  0  0  0  0  0  0  0  0  0  0
    7.3153   -0.3347    2.1554 H   0  0  0  0  0  0  0  0  0  0  0  0
   10.2944   -2.1481    0.0412 H   0  0  0  0  0  0  0  0  0  0  0  0
    9.8764   -3.4025   -2.0575 H   0  0  0  0  0  0  0  0  0  0  0  0
    8.3328   -4.1296   -3.8323 H   0  0  0  0  0  0  0  0  0  0  0  0
    5.9612   -3.4139   -3.7815 H   0  0  0  0  0  0  0  0  0  0  0  0
    5.1239   -2.0224   -1.9739 H   0  0  0  0  0  0  0  0  0  0  0  0
    3.1734    1.7233    2.8136 H   0  0  0  0  0  0  0  0  0  0  0  0
    2.2546    0.2315    2.6689 H   0  0  0  0  0  0  0  0  0  0  0  0
    0.7579    2.1505    2.7327 H   0  0  0  0  0  0  0  0  0  0  0  0
    0.6317    1.4485    1.1205 H   0  0  0  0  0  0  0  0  0  0  0  0
    1.9959    5.1990   -0.2763 H   0  0  0  0  0  0  0  0  0  0  0  0
    3.5706    5.3538   -2.1792 H   0  0  0  0  0  0  0  0  0  0  0  0
    4.9465    1.3781   -1.3858 H   0  0  0  0  0  0  0  0  0  0  0  0
  1  2  1  0  0  0  0
  1 27  1  0  0  0  0
  1 28  1  0  0  0  0
  1 29  1  0  0  0  0
  3  2  1  6  0  0  0
  3  4  1  0  0  0  0
  3 17  1  0  0  0  0
  3 26  1  0  0  0  0
  4  5  2  0  0  0  0
  4  6  1  0  0  0  0
  6  7  1  0  0  0  0
  6 30  1  0  0  0  0
  7  8  1  0  0  0  0
  7 16  2  0  0  0  0
  8  9  2  0  0  0  0
  8 31  1  0  0  0  0
  9 10  1  0  0  0  0
 10 11  2  0  0  0  0
 10 32  1  0  0  0  0
 11 12  1  0  0  0  0
 11 16  1  0  0  0  0
 12 13  2  0  0  0  0
 12 33  1  0  0  0  0
 13 14  1  0  0  0  0
 13 34  1  0  0  0  0
 14 15  2  0  0  0  0
 14 35  1  0  0  0  0
 15 16  1  0  0  0  0
 15 36  1  0  0  0  0
 17 18  1  0  0  0  0
 17 37  1  0  0  0  0
 17 38  1  0  0  0  0
 18 19  1  0  0  0  0
 18 39  1  0  0  0  0
 18 40  1  0  0  0  0
 19 20  1  0  0  0  0
 20 21  1  0  0  0  0
 20 26  2  0  0  0  0
 21 22  2  0  0  0  0
 21 41  1  0  0  0  0
 22 23  1  0  0  0  0
 22 42  1  0  0  0  0
 23 24  1  0  0  0  0
 23 25  2  0  0  0  0
 25 26  1  0  0  0  0
 25 43  1  0  0  0  0
M  END
$$$$
