
 OpenBabel07202414173D

 47 49  0  0  1  0  0  0  0  0999 V2000
    0.9225    0.2349    0.0116 Cl  0  0  0  0  0  0  0  0  0  0  0  0
    2.6513    0.5769    0.2193 C   0  0  0  0  0  0  0  0  0  0  0  0
    3.2144   -0.0880    1.4684 C   0  0  0  0  0  0  0  0  0  0  0  0
    2.5156   -0.7329    2.2501 O   0  0  0  0  0  0  0  0  0  0  0  0
    4.5913    0.0233    1.6611 N   0  0  0  0  0  0  0  0  0  0  0  0
    5.5136    0.7970    0.8180 C   0  0  0  0  0  0  0  0  0  0  0  0
    6.6733   -0.0589    0.2733 C   0  0  0  0  0  0  0  0  0  0  0  0
    7.3674   -0.8343    1.3557 N   0  0  0  0  0  0  0  0  0  0  0  0
    8.3117    0.0927    2.4637 S   0  0  0  0  0  0  0  0  0  0  0  0
    7.5979    1.2792    2.8382 O   0  0  0  0  0  0  0  0  0  0  0  0
    8.8020   -0.8367    3.4698 O   0  0  0  0  0  0  0  0  0  0  0  0
    9.7611    0.7167    1.7359 C   0  0  0  0  0  0  0  0  0  0  0  0
   10.0773    2.1137    1.6305 C   0  0  0  0  0  0  0  0  0  0  0  0
   11.2992    2.3297    1.0260 C   0  0  0  0  0  0  0  0  0  0  0  0
   12.1027    0.8614    0.6781 S   0  0  0  0  0  0  0  0  0  0  0  0
   10.8088   -0.0682    1.3055 C   0  0  0  0  0  0  0  0  0  0  0  0
    6.3418   -1.7190    2.0765 C   0  0  2  0  0  0  0  0  0  0  0  0
    5.6952   -2.7358    1.1100 C   0  0  0  0  0  0  0  0  0  0  0  0
    4.4816   -2.7801    0.9009 O   0  0  0  0  0  0  0  0  0  0  0  0
    6.5251   -3.5986    0.4375 N   0  0  0  0  0  0  0  0  0  0  0  0
    5.9220   -4.5247   -0.5162 C   0  0  0  0  0  0  0  0  0  0  0  0
    6.6775   -5.8209   -0.6559 C   0  0  0  0  0  0  0  0  0  0  0  0
    5.9948   -6.9926   -0.9894 C   0  0  0  0  0  0  0  0  0  0  0  0
    6.7140   -8.1789   -1.1036 C   0  0  0  0  0  0  0  0  0  0  0  0
    8.0900   -8.1604   -0.9120 C   0  0  0  0  0  0  0  0  0  0  0  0
    8.6935   -6.9508   -0.6128 C   0  0  0  0  0  0  0  0  0  0  0  0
    8.0242   -5.7849   -0.4823 N   0  0  0  0  0  0  0  0  0  0  0  0
    5.2072   -0.8502    2.6831 C   0  0  0  0  0  0  0  0  0  0  0  0
    2.7669    1.6625    0.2499 H   0  0  0  0  0  0  0  0  0  0  0  0
    3.1717    0.1689   -0.6509 H   0  0  0  0  0  0  0  0  0  0  0  0
    5.8839    1.6199    1.4311 H   0  0  0  0  0  0  0  0  0  0  0  0
    4.9953    1.2691   -0.0171 H   0  0  0  0  0  0  0  0  0  0  0  0
    7.3921    0.5431   -0.2859 H   0  0  0  0  0  0  0  0  0  0  0  0
    6.2754   -0.7771   -0.4586 H   0  0  0  0  0  0  0  0  0  0  0  0
    9.4553    2.9285    1.9878 H   0  0  0  0  0  0  0  0  0  0  0  0
   11.7677    3.2794    0.8006 H   0  0  0  0  0  0  0  0  0  0  0  0
   10.8881   -1.1461    1.3501 H   0  0  0  0  0  0  0  0  0  0  0  0
    6.8377   -2.2959    2.8656 H   0  0  0  0  0  0  0  0  0  0  0  0
    7.5137   -3.4022    0.3569 H   0  0  0  0  0  0  0  0  0  0  0  0
    5.8667   -4.0179   -1.4866 H   0  0  0  0  0  0  0  0  0  0  0  0
    4.8951   -4.7434   -0.2015 H   0  0  0  0  0  0  0  0  0  0  0  0
    4.9184   -6.9896   -1.1446 H   0  0  0  0  0  0  0  0  0  0  0  0
    6.2055   -9.1095   -1.3405 H   0  0  0  0  0  0  0  0  0  0  0  0
    8.6804   -9.0655   -0.9964 H   0  0  0  0  0  0  0  0  0  0  0  0
    9.7669   -6.8806   -0.4695 H   0  0  0  0  0  0  0  0  0  0  0  0
    5.5643   -0.2113    3.4939 H   0  0  0  0  0  0  0  0  0  0  0  0
    4.4514   -1.5108    3.1251 H   0  0  0  0  0  0  0  0  0  0  0  0
  1  2  1  0  0  0  0
  2  3  1  0  0  0  0
  2 29  1  0  0  0  0
  2 30  1  0  0  0  0
  3  4  2  0  0  0  0
  3  5  1  0  0  0  0
  5  6  1  0  0  0  0
  5 28  1  0  0  0  0
  6  7  1  0  0  0  0
  6 31  1  0  0  0  0
  6 32  1  0  0  0  0
  7  8  1  0  0  0  0
  7 33  1  0  0  0  0
  7 34  1  0  0  0  0
  8  9  1  0  0  0  0
  8 17  1  0  0  0  0
  9 10  2  0  0  0  0
  9 11  2  0  0  0  0
  9 12  1  0  0  0  0
 12 13  1  0  0  0  0
 12 16  2  0  0  0  0
 13 14  2  0  0  0  0
 13 35  1  0  0  0  0
 14 15  1  0  0  0  0
 14 36  1  0  0  0  0
 15 16  1  0  0  0  0
 16 37  1  0  0  0  0
 17 28  1  0  0  0  0
 17 18  1  0  0  0  0
 17 38  1  1  0  0  0
 18 19  2  0  0  0  0
 18 20  1  0  0  0  0
 20 21  1  0  0  0  0
 20 39  1  0  0  0  0
 21 22  1  0  0  0  0
 21 40  1  0  0  0  0
 21 41  1  0  0  0  0
 22 23  1  0  0  0  0
 22 27  2  0  0  0  0
 23 24  2  0  0  0  0
 23 42  1  0  0  0  0
 24 25  1  0  0  0  0
 24 43  1  0  0  0  0
 25 26  2  0  0  0  0
 25 44  1  0  0  0  0
 26 27  1  0  0  0  0
 26 45  1  0  0  0  0
 28 46  1  0  0  0  0
 28 47  1  0  0  0  0
M  END
$$$$
