
 OpenBabel07202414153D

 43 46  0  0  1  0  0  0  0  0999 V2000
    4.9577   -0.5488    0.8342 C   0  0  0  0  0  0  0  0  0  0  0  0
    4.0850    0.5311    1.1634 O   0  0  0  0  0  0  0  0  0  0  0  0
    2.6769    0.2288    1.1526 C   0  0  1  0  0  0  0  0  0  0  0  0
    2.1487   -0.0474   -0.3041 C   0  0  0  0  0  0  0  0  0  0  0  0
    1.3382   -0.9752   -0.4710 O   0  0  0  0  0  0  0  0  0  0  0  0
    2.6456    0.7416   -1.3552 N   0  0  0  0  0  0  0  0  0  0  0  0
    2.2340    0.4825   -2.7136 C   0  0  0  0  0  0  0  0  0  0  0  0
    0.9943   -0.1302   -2.9525 C   0  0  0  0  0  0  0  0  0  0  0  0
    0.6328   -0.7476   -4.0917 N   0  0  0  0  0  0  0  0  0  0  0  0
    1.5710   -0.7798   -5.0466 C   0  0  0  0  0  0  0  0  0  0  0  0
    2.7604   -0.0780   -5.0046 C   0  0  0  0  0  0  0  0  0  0  0  0
    3.5881   -0.0920   -6.1229 C   0  0  0  0  0  0  0  0  0  0  0  0
    4.4680    0.9582   -6.3278 C   0  0  0  0  0  0  0  0  0  0  0  0
    4.6886    1.8616   -5.2964 C   0  0  0  0  0  0  0  0  0  0  0  0
    4.0860    1.6703   -4.0282 C   0  0  0  0  0  0  0  0  0  0  0  0
    3.0478    0.7094   -3.8659 C   0  0  0  0  0  0  0  0  0  0  0  0
    2.3881   -1.0134    2.0394 C   0  0  0  0  0  0  0  0  0  0  0  0
    0.9414   -1.0626    2.4891 C   0  0  0  0  0  0  0  0  0  0  0  0
    0.6422    0.0448    3.3285 O   0  0  0  0  0  0  0  0  0  0  0  0
    0.9987    1.2581    2.8033 C   0  0  0  0  0  0  0  0  0  0  0  0
    0.3891    2.3650    3.4029 C   0  0  0  0  0  0  0  0  0  0  0  0
   -0.4889    2.1923    4.4056 F   0  0  0  0  0  0  0  0  0  0  0  0
    0.6733    3.6526    2.9809 C   0  0  0  0  0  0  0  0  0  0  0  0
    1.5848    3.8285    1.9617 C   0  0  0  0  0  0  0  0  0  0  0  0
    1.8876    5.0685    1.5398 F   0  0  0  0  0  0  0  0  0  0  0  0
    2.2223    2.7358    1.3551 C   0  0  0  0  0  0  0  0  0  0  0  0
    1.9470    1.4251    1.7731 C   0  0  0  0  0  0  0  0  0  0  0  0
    5.9751   -0.2555    1.1069 H   0  0  0  0  0  0  0  0  0  0  0  0
    4.9272   -0.7442   -0.2398 H   0  0  0  0  0  0  0  0  0  0  0  0
    4.7355   -1.4664    1.3857 H   0  0  0  0  0  0  0  0  0  0  0  0
    3.5429    1.1959   -1.2108 H   0  0  0  0  0  0  0  0  0  0  0  0
    0.2225   -0.1512   -2.1919 H   0  0  0  0  0  0  0  0  0  0  0  0
    1.2648   -1.3369   -5.9387 H   0  0  0  0  0  0  0  0  0  0  0  0
    3.5024   -0.8778   -6.8765 H   0  0  0  0  0  0  0  0  0  0  0  0
    4.9367    1.0818   -7.3004 H   0  0  0  0  0  0  0  0  0  0  0  0
    5.3295    2.7223   -5.4798 H   0  0  0  0  0  0  0  0  0  0  0  0
    4.3373    2.3602   -3.2410 H   0  0  0  0  0  0  0  0  0  0  0  0
    3.0306   -0.9840    2.9299 H   0  0  0  0  0  0  0  0  0  0  0  0
    2.6220   -1.9446    1.5097 H   0  0  0  0  0  0  0  0  0  0  0  0
    0.7810   -1.9684    3.0854 H   0  0  0  0  0  0  0  0  0  0  0  0
    0.2187   -1.1014    1.6671 H   0  0  0  0  0  0  0  0  0  0  0  0
    0.1964    4.5039    3.4600 H   0  0  0  0  0  0  0  0  0  0  0  0
    2.9501    2.9363    0.5748 H   0  0  0  0  0  0  0  0  0  0  0  0
  1  2  1  0  0  0  0
  1 28  1  0  0  0  0
  1 29  1  0  0  0  0
  1 30  1  0  0  0  0
  3 17  1  0  0  0  0
  3 27  1  0  0  0  0
  3  4  1  6  0  0  0
  3  2  1  0  0  0  0
  4  5  2  0  0  0  0
  4  6  1  0  0  0  0
  6  7  1  0  0  0  0
  6 31  1  0  0  0  0
  7  8  1  0  0  0  0
  7 16  2  0  0  0  0
  8  9  2  0  0  0  0
  8 32  1  0  0  0  0
  9 10  1  0  0  0  0
 10 11  2  0  0  0  0
 10 33  1  0  0  0  0
 11 12  1  0  0  0  0
 11 16  1  0  0  0  0
 12 13  2  0  0  0  0
 12 34  1  0  0  0  0
 13 14  1  0  0  0  0
 13 35  1  0  0  0  0
 14 15  2  0  0  0  0
 14 36  1  0  0  0  0
 15 16  1  0  0  0  0
 15 37  1  0  0  0  0
 17 18  1  0  0  0  0
 17 38  1  0  0  0  0
 17 39  1  0  0  0  0
 18 19  1  0  0  0  0
 18 40  1  0  0  0  0
 18 41  1  0  0  0  0
 19 20  1  0  0  0  0
 20 21  1  0  0  0  0
 20 27  2  0  0  0  0
 21 22  1  0  0  0  0
 21 23  2  0  0  0  0
 23 24  1  0  0  0  0
 23 42  1  0  0  0  0
 24 25  1  0  0  0  0
 24 26  2  0  0  0  0
 26 27  1  0  0  0  0
 26 43  1  0  0  0  0
M  END
$$$$
