
 OpenBabel07202414153D

 42 45  0  0  1  0  0  0  0  0999 V2000
    1.2316   -0.3827   -0.5116 C   0  0  0  0  0  0  0  0  0  0  0  0
    2.6848   -0.1471   -0.1120 C   0  0  2  0  0  0  0  0  0  0  0  0
    3.2542   -1.3133    0.6899 C   0  0  0  0  0  0  0  0  0  0  0  0
    4.6697   -1.2099    0.8715 O   0  0  0  0  0  0  0  0  0  0  0  0
    5.1805    0.0493    1.0229 C   0  0  0  0  0  0  0  0  0  0  0  0
    6.5686    0.1109    1.1640 C   0  0  0  0  0  0  0  0  0  0  0  0
    7.2116    1.3435    1.2546 C   0  0  0  0  0  0  0  0  0  0  0  0
    6.4585    2.5141    1.2239 C   0  0  0  0  0  0  0  0  0  0  0  0
    7.2566    4.0362    1.3078 Cl  0  0  0  0  0  0  0  0  0  0  0  0
    5.0667    2.4636    1.0940 C   0  0  0  0  0  0  0  0  0  0  0  0
    4.4152    1.2237    0.9729 C   0  0  0  0  0  0  0  0  0  0  0  0
    2.9267    1.1439    0.6888 C   0  0  2  0  0  0  0  0  0  0  0  0
    1.9978    1.2303    1.9074 C   0  0  0  0  0  0  0  0  0  0  0  0
    0.8215    1.5720    1.7522 O   0  0  0  0  0  0  0  0  0  0  0  0
    2.5150    0.8584    3.1484 N   0  0  0  0  0  0  0  0  0  0  0  0
    1.7284    1.1178    4.3023 C   0  0  0  0  0  0  0  0  0  0  0  0
    2.0040    2.2614    5.0520 C   0  0  0  0  0  0  0  0  0  0  0  0
    1.2875    2.6613    6.1279 N   0  0  0  0  0  0  0  0  0  0  0  0
    0.3378    1.8052    6.5545 C   0  0  0  0  0  0  0  0  0  0  0  0
    0.1188    0.5408    6.0137 C   0  0  0  0  0  0  0  0  0  0  0  0
   -0.6438   -0.4183    6.7036 C   0  0  0  0  0  0  0  0  0  0  0  0
   -0.7827   -1.7057    6.1961 C   0  0  0  0  0  0  0  0  0  0  0  0
   -0.2769   -2.0083    4.9362 C   0  0  0  0  0  0  0  0  0  0  0  0
    0.4671   -1.0535    4.2331 C   0  0  0  0  0  0  0  0  0  0  0  0
    0.7636    0.2054    4.8040 C   0  0  0  0  0  0  0  0  0  0  0  0
    1.1713   -1.2029   -1.2350 H   0  0  0  0  0  0  0  0  0  0  0  0
    0.8085    0.5086   -0.9864 H   0  0  0  0  0  0  0  0  0  0  0  0
    0.6063   -0.6539    0.3443 H   0  0  0  0  0  0  0  0  0  0  0  0
    3.2598   -0.0629   -1.0462 H   0  0  0  0  0  0  0  0  0  0  0  0
    3.0700   -2.2561    0.1637 H   0  0  0  0  0  0  0  0  0  0  0  0
    2.7867   -1.4109    1.6758 H   0  0  0  0  0  0  0  0  0  0  0  0
    7.1517   -0.8068    1.1669 H   0  0  0  0  0  0  0  0  0  0  0  0
    8.2958    1.3806    1.3293 H   0  0  0  0  0  0  0  0  0  0  0  0
    4.5025    3.3929    1.0373 H   0  0  0  0  0  0  0  0  0  0  0  0
    2.6673    1.9994    0.0474 H   0  0  0  0  0  0  0  0  0  0  0  0
    3.4823    1.1336    3.2339 H   0  0  0  0  0  0  0  0  0  0  0  0
    2.8292    2.9156    4.7996 H   0  0  0  0  0  0  0  0  0  0  0  0
   -0.2549    2.1696    7.3942 H   0  0  0  0  0  0  0  0  0  0  0  0
   -1.0536   -0.1883    7.6848 H   0  0  0  0  0  0  0  0  0  0  0  0
   -1.2748   -2.4725    6.7896 H   0  0  0  0  0  0  0  0  0  0  0  0
   -0.4278   -3.0006    4.5189 H   0  0  0  0  0  0  0  0  0  0  0  0
    0.8589   -1.3225    3.2546 H   0  0  0  0  0  0  0  0  0  0  0  0
  1  2  1  0  0  0  0
  1 26  1  0  0  0  0
  1 27  1  0  0  0  0
  1 28  1  0  0  0  0
  2  3  1  0  0  0  0
  2 12  1  0  0  0  0
  2 29  1  6  0  0  0
  3  4  1  0  0  0  0
  3 30  1  0  0  0  0
  3 31  1  0  0  0  0
  4  5  1  0  0  0  0
  5  6  2  0  0  0  0
  5 11  1  0  0  0  0
  6  7  1  0  0  0  0
  6 32  1  0  0  0  0
  7  8  2  0  0  0  0
  7 33  1  0  0  0  0
  8  9  1  0  0  0  0
  8 10  1  0  0  0  0
 10 11  2  0  0  0  0
 10 34  1  0  0  0  0
 11 12  1  0  0  0  0
 12 13  1  0  0  0  0
 12 35  1  6  0  0  0
 13 14  2  0  0  0  0
 13 15  1  0  0  0  0
 15 16  1  0  0  0  0
 15 36  1  0  0  0  0
 16 17  2  0  0  0  0
 16 25  1  0  0  0  0
 17 18  1  0  0  0  0
 17 37  1  0  0  0  0
 18 19  2  0  0  0  0
 19 20  1  0  0  0  0
 19 38  1  0  0  0  0
 20 21  2  0  0  0  0
 20 25  1  0  0  0  0
 21 22  1  0  0  0  0
 21 39  1  0  0  0  0
 22 23  2  0  0  0  0
 22 40  1  0  0  0  0
 23 24  1  0  0  0  0
 23 41  1  0  0  0  0
 24 25  2  0  0  0  0
 24 42  1  0  0  0  0
M  END
$$$$
