
 OpenBabel07202414113D

 36 37  0  0  0  0  0  0  0  0999 V2000
    1.1397    0.3046    0.5583 C   0  0  0  0  0  0  0  0  0  0  0  0
    2.6159    0.1151    0.3241 C   0  0  0  0  0  0  0  0  0  0  0  0
    3.2947   -0.3757    1.2283 O   0  0  0  0  0  0  0  0  0  0  0  0
    3.1425    0.5958   -0.8797 N   0  0  0  0  0  0  0  0  0  0  0  0
    2.3204    0.9935   -2.0407 C   0  0  0  0  0  0  0  0  0  0  0  0
    2.2047    2.4875   -2.3540 C   0  0  0  0  0  0  0  0  0  0  0  0
    2.0722    2.8694   -3.5147 O   0  0  0  0  0  0  0  0  0  0  0  0
    2.1708    3.3100   -1.2419 N   0  0  0  0  0  0  0  0  0  0  0  0
    2.0412    4.7100   -1.3063 C   0  0  0  0  0  0  0  0  0  0  0  0
    2.7350    5.4667   -0.3585 C   0  0  0  0  0  0  0  0  0  0  0  0
    2.7079    6.8611   -0.4185 C   0  0  0  0  0  0  0  0  0  0  0  0
    1.9344    7.4966   -1.3852 C   0  0  0  0  0  0  0  0  0  0  0  0
    1.1919    6.7507   -2.2970 C   0  0  0  0  0  0  0  0  0  0  0  0
    1.2468    5.3539   -2.2724 C   0  0  0  0  0  0  0  0  0  0  0  0
    0.1862    7.5383   -3.4537 Cl  0  0  0  0  0  0  0  0  0  0  0  0
    1.9253    8.8368   -1.4208 F   0  0  0  0  0  0  0  0  0  0  0  0
    4.5595    0.5035   -1.0993 C   0  0  0  0  0  0  0  0  0  0  0  0
    5.2571   -0.6775   -0.8042 C   0  0  0  0  0  0  0  0  0  0  0  0
    6.6505   -0.7290   -0.8902 C   0  0  0  0  0  0  0  0  0  0  0  0
    7.3656    0.4068   -1.2586 C   0  0  0  0  0  0  0  0  0  0  0  0
    6.6787    1.5751   -1.5731 C   0  0  0  0  0  0  0  0  0  0  0  0
    5.2800    1.6213   -1.5324 C   0  0  0  0  0  0  0  0  0  0  0  0
    7.5585    3.0020   -1.9647 Cl  0  0  0  0  0  0  0  0  0  0  0  0
    0.9224    0.0851    1.6098 H   0  0  0  0  0  0  0  0  0  0  0  0
    0.5602   -0.3810   -0.0612 H   0  0  0  0  0  0  0  0  0  0  0  0
    0.8521    1.3420    0.3757 H   0  0  0  0  0  0  0  0  0  0  0  0
    1.2953    0.6312   -1.9168 H   0  0  0  0  0  0  0  0  0  0  0  0
    2.7215    0.4881   -2.9280 H   0  0  0  0  0  0  0  0  0  0  0  0
    2.5699    2.9211   -0.3929 H   0  0  0  0  0  0  0  0  0  0  0  0
    3.3576    4.9855    0.3909 H   0  0  0  0  0  0  0  0  0  0  0  0
    3.2960    7.4561    0.2732 H   0  0  0  0  0  0  0  0  0  0  0  0
    0.6619    4.7868   -2.9844 H   0  0  0  0  0  0  0  0  0  0  0  0
    4.7228   -1.5744   -0.4922 H   0  0  0  0  0  0  0  0  0  0  0  0
    7.1761   -1.6504   -0.6431 H   0  0  0  0  0  0  0  0  0  0  0  0
    8.4518    0.3808   -1.2761 H   0  0  0  0  0  0  0  0  0  0  0  0
    4.7952    2.5627   -1.7533 H   0  0  0  0  0  0  0  0  0  0  0  0
  1  2  1  0  0  0  0
  1 24  1  0  0  0  0
  1 25  1  0  0  0  0
  1 26  1  0  0  0  0
  2  3  2  0  0  0  0
  2  4  1  0  0  0  0
  4  5  1  0  0  0  0
  4 17  1  0  0  0  0
  5  6  1  0  0  0  0
  5 27  1  0  0  0  0
  5 28  1  0  0  0  0
  6  7  2  0  0  0  0
  6  8  1  0  0  0  0
  8  9  1  0  0  0  0
  8 29  1  0  0  0  0
  9 10  1  0  0  0  0
  9 14  2  0  0  0  0
 10 11  2  0  0  0  0
 10 30  1  0  0  0  0
 11 12  1  0  0  0  0
 11 31  1  0  0  0  0
 12 13  2  0  0  0  0
 12 16  1  0  0  0  0
 13 14  1  0  0  0  0
 13 15  1  0  0  0  0
 14 32  1  0  0  0  0
 17 18  1  0  0  0  0
 17 22  2  0  0  0  0
 18 19  2  0  0  0  0
 18 33  1  0  0  0  0
 19 20  1  0  0  0  0
 19 34  1  0  0  0  0
 20 21  2  0  0  0  0
 20 35  1  0  0  0  0
 21 22  1  0  0  0  0
 21 23  1  0  0  0  0
 22 36  1  0  0  0  0
M  END
$$$$
