
 OpenBabel07202414163D

 38 39  0  0  0  0  0  0  0  0999 V2000
   -4.1472   -0.9041    0.2482 C   0  0  0  0  0  0  0  0  0  0  0  0
   -3.1180   -1.9003    0.6962 C   0  0  0  0  0  0  0  0  0  0  0  0
   -3.2763   -2.5741    1.8902 C   0  0  0  0  0  0  0  0  0  0  0  0
   -2.2548   -3.4259    2.2421 C   0  0  0  0  0  0  0  0  0  0  0  0
   -1.1366   -3.5508    1.5009 N   0  0  0  0  0  0  0  0  0  0  0  0
   -1.0335   -2.8222    0.3793 C   0  0  0  0  0  0  0  0  0  0  0  0
   -2.0169   -2.0382   -0.0769 N   0  0  0  0  0  0  0  0  0  0  0  0
    0.1528   -2.8152   -0.3580 N   0  0  0  0  0  0  0  0  0  0  0  0
    1.2010   -3.7572    0.0454 C   0  0  0  0  0  0  0  0  0  0  0  0
    1.8727   -3.3560    1.3738 C   0  0  0  0  0  0  0  0  0  0  0  0
    2.9973   -2.3339    1.2620 C   0  0  0  0  0  0  0  0  0  0  0  0
    3.9363   -2.6606    0.1920 N   0  0  0  0  0  0  0  0  0  0  0  0
    3.3105   -2.8384   -1.1103 C   0  0  0  0  0  0  0  0  0  0  0  0
    2.2412   -3.9254   -1.0751 C   0  0  0  0  0  0  0  0  0  0  0  0
    5.2800   -2.3453    0.3880 C   0  0  0  0  0  0  0  0  0  0  0  0
    5.6976   -1.8520    1.4451 O   0  0  0  0  0  0  0  0  0  0  0  0
    6.2700   -2.6802   -0.7158 C   0  0  0  0  0  0  0  0  0  0  0  0
    6.3913   -1.3268   -1.8517 Cl  0  0  0  0  0  0  0  0  0  0  0  0
   -2.3181   -4.2377    3.4993 C   0  0  0  0  0  0  0  0  0  0  0  0
   -5.0812   -1.0041    0.8107 H   0  0  0  0  0  0  0  0  0  0  0  0
   -4.3765   -1.0445   -0.8124 H   0  0  0  0  0  0  0  0  0  0  0  0
   -3.7633    0.1098    0.3984 H   0  0  0  0  0  0  0  0  0  0  0  0
   -4.1484   -2.4375    2.5154 H   0  0  0  0  0  0  0  0  0  0  0  0
   -0.1549   -2.8737   -1.3258 H   0  0  0  0  0  0  0  0  0  0  0  0
    0.7357   -4.7448    0.1764 H   0  0  0  0  0  0  0  0  0  0  0  0
    2.2960   -4.2699    1.8112 H   0  0  0  0  0  0  0  0  0  0  0  0
    1.1537   -2.9756    2.1055 H   0  0  0  0  0  0  0  0  0  0  0  0
    3.5204   -2.2956    2.2258 H   0  0  0  0  0  0  0  0  0  0  0  0
    2.6080   -1.3287    1.0685 H   0  0  0  0  0  0  0  0  0  0  0  0
    4.0476   -3.1025   -1.8701 H   0  0  0  0  0  0  0  0  0  0  0  0
    2.8862   -1.8724   -1.4072 H   0  0  0  0  0  0  0  0  0  0  0  0
    2.7514   -4.8848   -0.9175 H   0  0  0  0  0  0  0  0  0  0  0  0
    1.7555   -3.9878   -2.0564 H   0  0  0  0  0  0  0  0  0  0  0  0
    5.9910   -3.5951   -1.2431 H   0  0  0  0  0  0  0  0  0  0  0  0
    7.2532   -2.8483   -0.2701 H   0  0  0  0  0  0  0  0  0  0  0  0
   -3.2727   -4.1094    4.0191 H   0  0  0  0  0  0  0  0  0  0  0  0
   -1.5140   -3.9364    4.1778 H   0  0  0  0  0  0  0  0  0  0  0  0
   -2.2021   -5.2998    3.2611 H   0  0  0  0  0  0  0  0  0  0  0  0
  1  2  1  0  0  0  0
  1 20  1  0  0  0  0
  1 21  1  0  0  0  0
  1 22  1  0  0  0  0
  2  3  1  0  0  0  0
  2  7  2  0  0  0  0
  3  4  2  0  0  0  0
  3 23  1  0  0  0  0
  4  5  1  0  0  0  0
  4 19  1  0  0  0  0
  5  6  2  0  0  0  0
  6  7  1  0  0  0  0
  6  8  1  0  0  0  0
  8  9  1  0  0  0  0
  8 24  1  0  0  0  0
  9 10  1  0  0  0  0
  9 14  1  0  0  0  0
  9 25  1  0  0  0  0
 10 11  1  0  0  0  0
 10 26  1  0  0  0  0
 10 27  1  0  0  0  0
 11 12  1  0  0  0  0
 11 28  1  0  0  0  0
 11 29  1  0  0  0  0
 12 13  1  0  0  0  0
 12 15  1  0  0  0  0
 13 14  1  0  0  0  0
 13 30  1  0  0  0  0
 13 31  1  0  0  0  0
 14 32  1  0  0  0  0
 14 33  1  0  0  0  0
 15 16  2  0  0  0  0
 15 17  1  0  0  0  0
 17 18  1  0  0  0  0
 17 34  1  0  0  0  0
 17 35  1  0  0  0  0
 19 36  1  0  0  0  0
 19 37  1  0  0  0  0
 19 38  1  0  0  0  0
M  END
$$$$
