
 OpenBabel07202414193D

 44 47  0  0  0  0  0  0  0  0999 V2000
    4.1397    0.6925    0.0091 O   0  0  0  0  0  0  0  0  0  0  0  0
    2.8450    0.0390   -0.0695 S   0  0  0  0  0  0  0  0  0  0  0  0
    1.9649    0.0411    1.0786 O   0  0  0  0  0  0  0  0  0  0  0  0
    2.0766    0.7463   -1.3879 N   0  0  0  0  0  0  0  0  0  0  0  0
    0.7512    0.3717   -1.7180 C   0  0  0  0  0  0  0  0  0  0  0  0
   -0.3115    1.0109   -1.0805 C   0  0  0  0  0  0  0  0  0  0  0  0
   -1.6229    0.7018   -1.4398 C   0  0  0  0  0  0  0  0  0  0  0  0
   -1.8672   -0.2646   -2.4154 C   0  0  0  0  0  0  0  0  0  0  0  0
   -0.8016   -0.9231   -3.0302 C   0  0  0  0  0  0  0  0  0  0  0  0
    0.5123   -0.6019   -2.6855 C   0  0  0  0  0  0  0  0  0  0  0  0
    3.1622   -1.6317   -0.6058 C   0  0  0  0  0  0  0  0  0  0  0  0
    4.3480   -1.8295   -1.3479 C   0  0  0  0  0  0  0  0  0  0  0  0
    4.6727   -3.1106   -1.7301 C   0  0  0  0  0  0  0  0  0  0  0  0
    3.9097   -4.1800   -1.3500 C   0  0  0  0  0  0  0  0  0  0  0  0
    2.7692   -4.0245   -0.5994 C   0  0  0  0  0  0  0  0  0  0  0  0
    2.3371   -2.7259   -0.2667 C   0  0  0  0  0  0  0  0  0  0  0  0
    1.1111   -2.5108    0.3225 O   0  0  0  0  0  0  0  0  0  0  0  0
    0.1845   -3.5935    0.1375 C   0  0  0  0  0  0  0  0  0  0  0  0
   -1.2683   -3.2721    0.3715 C   0  0  0  0  0  0  0  0  0  0  0  0
   -1.7109   -2.0551    0.8890 C   0  0  0  0  0  0  0  0  0  0  0  0
   -3.0796   -1.8179    1.0367 C   0  0  0  0  0  0  0  0  0  0  0  0
   -4.0121   -2.7927    0.6781 C   0  0  0  0  0  0  0  0  0  0  0  0
   -3.5789   -4.0235    0.1902 C   0  0  0  0  0  0  0  0  0  0  0  0
   -2.2154   -4.2603    0.0410 C   0  0  0  0  0  0  0  0  0  0  0  0
    4.3865   -5.3633   -1.8145 O   0  0  0  0  0  0  0  0  0  0  0  0
    5.5146   -4.9092   -2.5877 C   0  0  0  0  0  0  0  0  0  0  0  0
    5.7353   -3.4843   -2.4891 O   0  0  0  0  0  0  0  0  0  0  0  0
    2.7074    0.9812   -2.1502 H   0  0  0  0  0  0  0  0  0  0  0  0
   -0.1221    1.7613   -0.3169 H   0  0  0  0  0  0  0  0  0  0  0  0
   -2.4527    1.2085   -0.9544 H   0  0  0  0  0  0  0  0  0  0  0  0
   -2.8904   -0.5112   -2.6878 H   0  0  0  0  0  0  0  0  0  0  0  0
   -0.9979   -1.6847   -3.7799 H   0  0  0  0  0  0  0  0  0  0  0  0
    1.3331   -1.1139   -3.1765 H   0  0  0  0  0  0  0  0  0  0  0  0
    4.9983   -1.0036   -1.6210 H   0  0  0  0  0  0  0  0  0  0  0  0
    2.2305   -4.9218   -0.3182 H   0  0  0  0  0  0  0  0  0  0  0  0
    0.4525   -4.4074    0.8227 H   0  0  0  0  0  0  0  0  0  0  0  0
    0.2385   -3.9337   -0.9062 H   0  0  0  0  0  0  0  0  0  0  0  0
   -0.9981   -1.2799    1.1635 H   0  0  0  0  0  0  0  0  0  0  0  0
   -3.4202   -0.8599    1.4214 H   0  0  0  0  0  0  0  0  0  0  0  0
   -5.0740   -2.5978    0.7831 H   0  0  0  0  0  0  0  0  0  0  0  0
   -4.2978   -4.7907   -0.0844 H   0  0  0  0  0  0  0  0  0  0  0  0
   -1.8862   -5.2232   -0.3458 H   0  0  0  0  0  0  0  0  0  0  0  0
    5.3391   -5.1666   -3.6392 H   0  0  0  0  0  0  0  0  0  0  0  0
    6.4099   -5.4337   -2.2381 H   0  0  0  0  0  0  0  0  0  0  0  0
  1  2  2  0  0  0  0
  2  3  2  0  0  0  0
  2  4  1  0  0  0  0
  2 11  1  0  0  0  0
  4  5  1  0  0  0  0
  4 28  1  0  0  0  0
  5  6  1  0  0  0  0
  5 10  2  0  0  0  0
  6  7  2  0  0  0  0
  6 29  1  0  0  0  0
  7  8  1  0  0  0  0
  7 30  1  0  0  0  0
  8  9  2  0  0  0  0
  8 31  1  0  0  0  0
  9 10  1  0  0  0  0
  9 32  1  0  0  0  0
 10 33  1  0  0  0  0
 11 12  1  0  0  0  0
 11 16  2  0  0  0  0
 12 13  2  0  0  0  0
 12 34  1  0  0  0  0
 13 14  1  0  0  0  0
 13 27  1  0  0  0  0
 14 15  2  0  0  0  0
 14 25  1  0  0  0  0
 15 16  1  0  0  0  0
 15 35  1  0  0  0  0
 16 17  1  0  0  0  0
 17 18  1  0  0  0  0
 18 19  1  0  0  0  0
 18 36  1  0  0  0  0
 18 37  1  0  0  0  0
 19 20  1  0  0  0  0
 19 24  2  0  0  0  0
 20 21  2  0  0  0  0
 20 38  1  0  0  0  0
 21 22  1  0  0  0  0
 21 39  1  0  0  0  0
 22 23  2  0  0  0  0
 22 40  1  0  0  0  0
 23 24  1  0  0  0  0
 23 41  1  0  0  0  0
 24 42  1  0  0  0  0
 25 26  1  0  0  0  0
 26 27  1  0  0  0  0
 26 43  1  0  0  0  0
 26 44  1  0  0  0  0
M  END
$$$$
