
 OpenBabel07202414193D

 47 50  0  0  1  0  0  0  0  0999 V2000
    1.1085    0.3200    0.0535 O   0  0  0  0  0  0  0  0  0  0  0  0
    2.2970    0.0410   -0.1079 C   0  0  0  0  0  0  0  0  0  0  0  0
    2.9745   -1.0092    0.7608 C   0  0  0  0  0  0  0  0  0  0  0  0
    3.4831   -0.4277    2.0561 C   0  0  0  0  0  0  0  0  0  0  0  0
    4.7728    0.1044    2.0886 C   0  0  0  0  0  0  0  0  0  0  0  0
    5.3592    0.6463    3.1727 N   0  0  0  0  0  0  0  0  0  0  0  0
    4.6173    0.6636    4.3015 C   0  0  0  0  0  0  0  0  0  0  0  0
    3.3140    0.1721    4.4062 C   0  0  0  0  0  0  0  0  0  0  0  0
    2.6076    0.2227    5.6210 C   0  0  0  0  0  0  0  0  0  0  0  0
    1.3094   -0.2628    5.7094 C   0  0  0  0  0  0  0  0  0  0  0  0
    0.6909   -0.7860    4.5793 C   0  0  0  0  0  0  0  0  0  0  0  0
    1.3853   -0.8362    3.3623 C   0  0  0  0  0  0  0  0  0  0  0  0
    2.7143   -0.3729    3.2491 C   0  0  0  0  0  0  0  0  0  0  0  0
    3.0902    0.6814   -1.0451 N   0  0  0  0  0  0  0  0  0  0  0  0
    2.5650    1.7754   -1.8424 C   0  0  0  0  0  0  0  0  0  0  0  0
    3.0377    1.4355   -3.2461 C   0  0  0  0  0  0  0  0  0  0  0  0
    4.4296    0.8285   -3.0114 C   0  0  1  0  0  0  0  0  0  0  0  0
    5.5399    1.8897   -2.8781 C   0  0  0  0  0  0  0  0  0  0  0  0
    6.9255    1.3066   -2.6838 C   0  0  0  0  0  0  0  0  0  0  0  0
    7.6875    1.6602   -1.5589 C   0  0  0  0  0  0  0  0  0  0  0  0
    8.9784    1.1552   -1.3788 C   0  0  0  0  0  0  0  0  0  0  0  0
    9.5238    0.2795   -2.3165 C   0  0  0  0  0  0  0  0  0  0  0  0
    8.7708   -0.0896   -3.4282 C   0  0  0  0  0  0  0  0  0  0  0  0
    9.4250   -1.2008   -4.5682 Cl  0  0  0  0  0  0  0  0  0  0  0  0
    7.4854    0.4260   -3.6216 C   0  0  0  0  0  0  0  0  0  0  0  0
    4.2189    0.0441   -1.7140 C   0  0  0  0  0  0  0  0  0  0  0  0
    3.8014   -1.4965    0.2359 H   0  0  0  0  0  0  0  0  0  0  0  0
    2.2615   -1.8260    0.9391 H   0  0  0  0  0  0  0  0  0  0  0  0
    5.4062    0.1028    1.2057 H   0  0  0  0  0  0  0  0  0  0  0  0
    5.1229    1.1002    5.1597 H   0  0  0  0  0  0  0  0  0  0  0  0
    3.0742    0.6453    6.5107 H   0  0  0  0  0  0  0  0  0  0  0  0
    0.7703   -0.2236    6.6558 H   0  0  0  0  0  0  0  0  0  0  0  0
   -0.3268   -1.1588    4.6355 H   0  0  0  0  0  0  0  0  0  0  0  0
    0.8540   -1.2391    2.5026 H   0  0  0  0  0  0  0  0  0  0  0  0
    3.0351    2.7024   -1.4869 H   0  0  0  0  0  0  0  0  0  0  0  0
    1.4818    1.8858   -1.7654 H   0  0  0  0  0  0  0  0  0  0  0  0
    3.0236    2.2885   -3.9267 H   0  0  0  0  0  0  0  0  0  0  0  0
    2.3755    0.6603   -3.6560 H   0  0  0  0  0  0  0  0  0  0  0  0
    4.6781    0.1474   -3.8346 H   0  0  0  0  0  0  0  0  0  0  0  0
    5.3126    2.5645   -2.0426 H   0  0  0  0  0  0  0  0  0  0  0  0
    5.5608    2.5181   -3.7766 H   0  0  0  0  0  0  0  0  0  0  0  0
    7.2821    2.3368   -0.8080 H   0  0  0  0  0  0  0  0  0  0  0  0
    9.5595    1.4486   -0.5082 H   0  0  0  0  0  0  0  0  0  0  0  0
   10.5279   -0.1101   -2.1736 H   0  0  0  0  0  0  0  0  0  0  0  0
    6.9282    0.1386   -4.5093 H   0  0  0  0  0  0  0  0  0  0  0  0
    5.0887    0.0362   -1.0534 H   0  0  0  0  0  0  0  0  0  0  0  0
    3.9404   -0.9895   -1.9429 H   0  0  0  0  0  0  0  0  0  0  0  0
  1  2  2  0  0  0  0
  2  3  1  0  0  0  0
  2 14  1  0  0  0  0
  3  4  1  0  0  0  0
  3 27  1  0  0  0  0
  3 28  1  0  0  0  0
  4  5  1  0  0  0  0
  4 13  2  0  0  0  0
  5  6  2  0  0  0  0
  5 29  1  0  0  0  0
  6  7  1  0  0  0  0
  7  8  2  0  0  0  0
  7 30  1  0  0  0  0
  8  9  1  0  0  0  0
  8 13  1  0  0  0  0
  9 10  2  0  0  0  0
  9 31  1  0  0  0  0
 10 11  1  0  0  0  0
 10 32  1  0  0  0  0
 11 12  2  0  0  0  0
 11 33  1  0  0  0  0
 12 13  1  0  0  0  0
 12 34  1  0  0  0  0
 14 15  1  0  0  0  0
 14 26  1  0  0  0  0
 15 16  1  0  0  0  0
 15 35  1  0  0  0  0
 15 36  1  0  0  0  0
 16 17  1  0  0  0  0
 16 37  1  0  0  0  0
 16 38  1  0  0  0  0
 17 18  1  0  0  0  0
 17 26  1  0  0  0  0
 17 39  1  6  0  0  0
 18 19  1  0  0  0  0
 18 40  1  0  0  0  0
 18 41  1  0  0  0  0
 19 20  1  0  0  0  0
 19 25  2  0  0  0  0
 20 21  2  0  0  0  0
 20 42  1  0  0  0  0
 21 22  1  0  0  0  0
 21 43  1  0  0  0  0
 22 23  2  0  0  0  0
 22 44  1  0  0  0  0
 23 24  1  0  0  0  0
 23 25  1  0  0  0  0
 25 45  1  0  0  0  0
 26 46  1  0  0  0  0
 26 47  1  0  0  0  0
M  END
$$$$
