
 OpenBabel07202414123D

 54 56  0  0  0  0  0  0  0  0999 V2000
    2.9746    0.4522    1.4354 C   0  0  0  0  0  0  0  0  0  0  0  0
    2.5051    0.0092    0.0500 C   0  0  0  0  0  0  0  0  0  0  0  0
    0.9780   -0.0703    0.0101 C   0  0  0  0  0  0  0  0  0  0  0  0
    3.0442    0.9456   -1.0623 C   0  0  0  0  0  0  0  0  0  0  0  0
    4.5192    0.9824   -1.1403 N   0  0  0  0  0  0  0  0  0  0  0  0
    5.1774   -0.2074   -1.3511 C   0  0  0  0  0  0  0  0  0  0  0  0
    6.5103   -0.3889   -1.2707 C   0  0  0  0  0  0  0  0  0  0  0  0
    7.0881   -1.6601   -1.2829 N   0  0  0  0  0  0  0  0  0  0  0  0
    6.4007   -2.8613   -1.3666 C   0  0  0  0  0  0  0  0  0  0  0  0
    5.1854   -2.9812   -1.4998 O   0  0  0  0  0  0  0  0  0  0  0  0
    7.1923   -3.9912   -1.2776 N   0  0  0  0  0  0  0  0  0  0  0  0
    6.4743   -5.2508   -1.4832 C   0  0  0  0  0  0  0  0  0  0  0  0
    7.3016   -6.5327   -1.4362 C   0  0  0  0  0  0  0  0  0  0  0  0
    6.4227   -7.7479   -1.5171 C   0  0  0  0  0  0  0  0  0  0  0  0
    5.9724   -8.4881   -2.6534 C   0  0  0  0  0  0  0  0  0  0  0  0
    6.2423   -8.3008   -4.0983 C   0  0  0  0  0  0  0  0  0  0  0  0
    5.1757   -9.5016   -2.2922 N   0  0  0  0  0  0  0  0  0  0  0  0
    5.0775   -9.4396   -0.9221 O   0  0  0  0  0  0  0  0  0  0  0  0
    5.8135   -8.3988   -0.4608 C   0  0  0  0  0  0  0  0  0  0  0  0
    5.7920   -8.1931    0.9992 C   0  0  0  0  0  0  0  0  0  0  0  0
    7.3313    0.8475   -1.1524 C   0  0  0  0  0  0  0  0  0  0  0  0
    8.7323    0.8564   -1.2647 C   0  0  0  0  0  0  0  0  0  0  0  0
    9.4529    2.0617   -1.2716 C   0  0  0  0  0  0  0  0  0  0  0  0
    8.7955    3.2806   -1.1544 C   0  0  0  0  0  0  0  0  0  0  0  0
    7.4107    3.3013   -1.0127 C   0  0  0  0  0  0  0  0  0  0  0  0
    6.6857    2.0952   -1.0165 C   0  0  0  0  0  0  0  0  0  0  0  0
    5.2012    2.1739   -0.9231 C   0  0  0  0  0  0  0  0  0  0  0  0
    4.6583    3.2455   -0.6775 O   0  0  0  0  0  0  0  0  0  0  0  0
    2.5697   -0.2095    2.2087 H   0  0  0  0  0  0  0  0  0  0  0  0
    2.6509    1.4734    1.6546 H   0  0  0  0  0  0  0  0  0  0  0  0
    4.0656    0.4113    1.5138 H   0  0  0  0  0  0  0  0  0  0  0  0
    2.8740   -1.0112   -0.1094 H   0  0  0  0  0  0  0  0  0  0  0  0
    0.5225    0.9243    0.0215 H   0  0  0  0  0  0  0  0  0  0  0  0
    0.5949   -0.6289    0.8717 H   0  0  0  0  0  0  0  0  0  0  0  0
    0.6422   -0.5917   -0.8929 H   0  0  0  0  0  0  0  0  0  0  0  0
    2.6520    1.9581   -0.9115 H   0  0  0  0  0  0  0  0  0  0  0  0
    2.6790    0.6088   -2.0414 H   0  0  0  0  0  0  0  0  0  0  0  0
    4.4988   -1.0274   -1.5269 H   0  0  0  0  0  0  0  0  0  0  0  0
    8.0713   -1.7263   -1.0703 H   0  0  0  0  0  0  0  0  0  0  0  0
    8.1597   -3.9204   -1.5457 H   0  0  0  0  0  0  0  0  0  0  0  0
    5.9627   -5.1849   -2.4510 H   0  0  0  0  0  0  0  0  0  0  0  0
    5.6921   -5.2940   -0.7121 H   0  0  0  0  0  0  0  0  0  0  0  0
    7.8792   -6.5645   -0.5044 H   0  0  0  0  0  0  0  0  0  0  0  0
    8.0319   -6.5381   -2.2526 H   0  0  0  0  0  0  0  0  0  0  0  0
    6.8659   -7.4248   -4.2916 H   0  0  0  0  0  0  0  0  0  0  0  0
    5.3025   -8.1768   -4.6488 H   0  0  0  0  0  0  0  0  0  0  0  0
    6.7528   -9.1815   -4.5039 H   0  0  0  0  0  0  0  0  0  0  0  0
    5.1919   -8.9593    1.5004 H   0  0  0  0  0  0  0  0  0  0  0  0
    5.3639   -7.2158    1.2416 H   0  0  0  0  0  0  0  0  0  0  0  0
    6.8070   -8.2388    1.4042 H   0  0  0  0  0  0  0  0  0  0  0  0
    9.2983   -0.0606   -1.3885 H   0  0  0  0  0  0  0  0  0  0  0  0
   10.5347    2.0479   -1.3916 H   0  0  0  0  0  0  0  0  0  0  0  0
    9.3508    4.2159   -1.1866 H   0  0  0  0  0  0  0  0  0  0  0  0
    6.8925    4.2540   -0.9256 H   0  0  0  0  0  0  0  0  0  0  0  0
  1  2  1  0  0  0  0
  1 29  1  0  0  0  0
  1 30  1  0  0  0  0
  1 31  1  0  0  0  0
  2  3  1  0  0  0  0
  2  4  1  0  0  0  0
  2 32  1  0  0  0  0
  3 33  1  0  0  0  0
  3 34  1  0  0  0  0
  3 35  1  0  0  0  0
  4  5  1  0  0  0  0
  4 36  1  0  0  0  0
  4 37  1  0  0  0  0
  5  6  1  0  0  0  0
  5 27  1  0  0  0  0
  6  7  2  0  0  0  0
  6 38  1  0  0  0  0
  7  8  1  0  0  0  0
  7 21  1  0  0  0  0
  8  9  1  0  0  0  0
  8 39  1  0  0  0  0
  9 10  2  0  0  0  0
  9 11  1  0  0  0  0
 11 12  1  0  0  0  0
 11 40  1  0  0  0  0
 12 13  1  0  0  0  0
 12 41  1  0  0  0  0
 12 42  1  0  0  0  0
 13 14  1  0  0  0  0
 13 43  1  0  0  0  0
 13 44  1  0  0  0  0
 14 15  1  0  0  0  0
 14 19  2  0  0  0  0
 15 16  1  0  0  0  0
 15 17  2  0  0  0  0
 16 45  1  0  0  0  0
 16 46  1  0  0  0  0
 16 47  1  0  0  0  0
 17 18  1  0  0  0  0
 18 19  1  0  0  0  0
 19 20  1  0  0  0  0
 20 48  1  0  0  0  0
 20 49  1  0  0  0  0
 20 50  1  0  0  0  0
 21 22  1  0  0  0  0
 21 26  2  0  0  0  0
 22 23  2  0  0  0  0
 22 51  1  0  0  0  0
 23 24  1  0  0  0  0
 23 52  1  0  0  0  0
 24 25  2  0  0  0  0
 24 53  1  0  0  0  0
 25 26  1  0  0  0  0
 25 54  1  0  0  0  0
 26 27  1  0  0  0  0
 27 28  2  0  0  0  0
M  END
$$$$
