
 OpenBabel07202414203D

 34 36  0  0  1  0  0  0  0  0999 V2000
    2.4258   -0.7177   -0.1163 C   0  0  0  0  0  0  0  0  0  0  0  0
    1.1984   -1.3833   -0.1192 C   0  0  0  0  0  0  0  0  0  0  0  0
    0.0073   -0.6624   -0.0474 C   0  0  0  0  0  0  0  0  0  0  0  0
    0.0359    0.7363   -0.0001 C   0  0  0  0  0  0  0  0  0  0  0  0
    1.2720    1.4031   -0.0152 C   0  0  0  0  0  0  0  0  0  0  0  0
    2.4578    0.6735   -0.0644 C   0  0  0  0  0  0  0  0  0  0  0  0
    3.9663    1.4966   -0.0248 Cl  0  0  0  0  0  0  0  0  0  0  0  0
   -1.2420    1.5208    0.1606 C   0  0  3  0  0  0  0  0  0  0  0  0
   -2.4317    0.6703   -0.2808 C   0  0  0  0  0  0  0  0  0  0  0  0
   -2.3342   -0.7086    0.3490 C   0  0  0  0  0  0  0  0  0  0  0  0
   -1.1404   -1.4023   -0.0288 O   0  0  0  0  0  0  0  0  0  0  0  0
   -1.4762    2.0478    1.5851 C   0  0  0  0  0  0  0  0  0  0  0  0
   -2.2320    3.0040    1.7590 O   0  0  0  0  0  0  0  0  0  0  0  0
   -0.8332    1.3594    2.6061 N   0  0  0  0  0  0  0  0  0  0  0  0
   -0.9697    1.5634    3.9633 C   0  0  0  0  0  0  0  0  0  0  0  0
    0.0926    1.0319    4.8024 C   0  0  0  0  0  0  0  0  0  0  0  0
    0.0497    1.2003    6.1331 C   0  0  0  0  0  0  0  0  0  0  0  0
   -1.0122    1.8428    6.7079 N   0  0  0  0  0  0  0  0  0  0  0  0
   -2.0735    2.3503    6.0029 C   0  0  0  0  0  0  0  0  0  0  0  0
   -3.0261    2.8949    6.5474 O   0  0  0  0  0  0  0  0  0  0  0  0
   -2.0089    2.1954    4.5296 C   0  0  0  0  0  0  0  0  0  0  0  0
    3.3492   -1.2898   -0.1506 H   0  0  0  0  0  0  0  0  0  0  0  0
    1.1710   -2.4697   -0.1607 H   0  0  0  0  0  0  0  0  0  0  0  0
    1.3079    2.4903    0.0346 H   0  0  0  0  0  0  0  0  0  0  0  0
   -1.1881    2.4020   -0.4932 H   0  0  0  0  0  0  0  0  0  0  0  0
   -2.4089    0.5634   -1.3734 H   0  0  0  0  0  0  0  0  0  0  0  0
   -3.3832    1.1449   -0.0152 H   0  0  0  0  0  0  0  0  0  0  0  0
   -3.1811   -1.3194    0.0180 H   0  0  0  0  0  0  0  0  0  0  0  0
   -2.3872   -0.6643    1.4428 H   0  0  0  0  0  0  0  0  0  0  0  0
   -0.1036    0.7105    2.3360 H   0  0  0  0  0  0  0  0  0  0  0  0
    0.9449    0.5353    4.3523 H   0  0  0  0  0  0  0  0  0  0  0  0
    0.8311    0.8509    6.7969 H   0  0  0  0  0  0  0  0  0  0  0  0
   -1.0579    1.9648    7.7124 H   0  0  0  0  0  0  0  0  0  0  0  0
   -2.8527    2.5960    3.9859 H   0  0  0  0  0  0  0  0  0  0  0  0
  1  2  1  0  0  0  0
  1  6  2  0  0  0  0
  1 22  1  0  0  0  0
  2  3  2  0  0  0  0
  2 23  1  0  0  0  0
  3  4  1  0  0  0  0
  3 11  1  0  0  0  0
  4  5  2  0  0  0  0
  4  8  1  0  0  0  0
  5  6  1  0  0  0  0
  5 24  1  0  0  0  0
  6  7  1  0  0  0  0
  8  9  1  0  0  0  0
  8 12  1  0  0  0  0
  8 25  1  0  0  0  0
  9 10  1  0  0  0  0
  9 26  1  0  0  0  0
  9 27  1  0  0  0  0
 10 11  1  0  0  0  0
 10 28  1  0  0  0  0
 10 29  1  0  0  0  0
 12 13  2  0  0  0  0
 12 14  1  0  0  0  0
 14 15  1  0  0  0  0
 14 30  1  0  0  0  0
 15 16  1  0  0  0  0
 15 21  2  0  0  0  0
 16 17  2  0  0  0  0
 16 31  1  0  0  0  0
 17 18  1  0  0  0  0
 17 32  1  0  0  0  0
 18 19  1  0  0  0  0
 18 33  1  0  0  0  0
 19 20  2  0  0  0  0
 19 21  1  0  0  0  0
 21 34  1  0  0  0  0
M  END
$$$$
