
 OpenBabel07202414133D

 43 45  0  0  0  0  0  0  0  0999 V2000
    1.0476    0.1634    0.0047 C   0  0  0  0  0  0  0  0  0  0  0  0
    2.5036    0.0775    0.0226 N   0  0  0  0  0  0  0  0  0  0  0  0
    3.2088   -1.1256   -0.4625 C   0  0  0  0  0  0  0  0  0  0  0  0
    2.3587   -2.2160   -1.1341 C   0  0  0  0  0  0  0  0  0  0  0  0
    3.1241   -3.4214   -1.6425 C   0  0  0  0  0  0  0  0  0  0  0  0
    2.8548   -4.6753   -1.0599 C   0  0  0  0  0  0  0  0  0  0  0  0
    3.4740   -5.8377   -1.5247 C   0  0  0  0  0  0  0  0  0  0  0  0
    4.3852   -5.7694   -2.5727 C   0  0  0  0  0  0  0  0  0  0  0  0
    4.6675   -4.5390   -3.1626 C   0  0  0  0  0  0  0  0  0  0  0  0
    4.0333   -3.3745   -2.7132 C   0  0  0  0  0  0  0  0  0  0  0  0
    4.3809   -1.9155   -3.5705 Cl  0  0  0  0  0  0  0  0  0  0  0  0
    3.1640    1.2298    0.4561 C   0  0  0  0  0  0  0  0  0  0  0  0
    2.5429    2.2572    0.7452 O   0  0  0  0  0  0  0  0  0  0  0  0
    4.6802    1.1988    0.6324 C   0  0  0  0  0  0  0  0  0  0  0  0
    5.1338    0.7246    1.9980 C   0  0  0  0  0  0  0  0  0  0  0  0
    4.3510    1.0091    3.1231 C   0  0  0  0  0  0  0  0  0  0  0  0
    4.6418    0.6184    4.3805 N   0  0  0  0  0  0  0  0  0  0  0  0
    5.7894   -0.0690    4.5438 C   0  0  0  0  0  0  0  0  0  0  0  0
    6.6805   -0.3763    3.5202 C   0  0  0  0  0  0  0  0  0  0  0  0
    7.8715   -1.0792    3.7838 C   0  0  0  0  0  0  0  0  0  0  0  0
    8.7751   -1.3535    2.7620 C   0  0  0  0  0  0  0  0  0  0  0  0
    8.5025   -0.9213    1.4705 C   0  0  0  0  0  0  0  0  0  0  0  0
    7.3159   -0.2331    1.1964 C   0  0  0  0  0  0  0  0  0  0  0  0
    6.3657    0.0475    2.2093 C   0  0  0  0  0  0  0  0  0  0  0  0
    0.5586   -0.7807   -0.2287 H   0  0  0  0  0  0  0  0  0  0  0  0
    0.7484    0.9150   -0.7324 H   0  0  0  0  0  0  0  0  0  0  0  0
    0.6990    0.4851    0.9923 H   0  0  0  0  0  0  0  0  0  0  0  0
    3.7518   -1.5480    0.3913 H   0  0  0  0  0  0  0  0  0  0  0  0
    3.9641   -0.7709   -1.1657 H   0  0  0  0  0  0  0  0  0  0  0  0
    1.7835   -1.7960   -1.9686 H   0  0  0  0  0  0  0  0  0  0  0  0
    1.6187   -2.5698   -0.4049 H   0  0  0  0  0  0  0  0  0  0  0  0
    2.1370   -4.7632   -0.2454 H   0  0  0  0  0  0  0  0  0  0  0  0
    3.2352   -6.7981   -1.0733 H   0  0  0  0  0  0  0  0  0  0  0  0
    4.8649   -6.6732   -2.9395 H   0  0  0  0  0  0  0  0  0  0  0  0
    5.3717   -4.4959   -3.9902 H   0  0  0  0  0  0  0  0  0  0  0  0
    5.0515    2.2202    0.4778 H   0  0  0  0  0  0  0  0  0  0  0  0
    5.1184    0.6035   -0.1690 H   0  0  0  0  0  0  0  0  0  0  0  0
    3.4301    1.5842    3.0509 H   0  0  0  0  0  0  0  0  0  0  0  0
    5.9834   -0.3699    5.5703 H   0  0  0  0  0  0  0  0  0  0  0  0
    8.1017   -1.4132    4.7937 H   0  0  0  0  0  0  0  0  0  0  0  0
    9.6942   -1.8935    2.9764 H   0  0  0  0  0  0  0  0  0  0  0  0
    9.2143   -1.1149    0.6720 H   0  0  0  0  0  0  0  0  0  0  0  0
    7.1592    0.0972    0.1726 H   0  0  0  0  0  0  0  0  0  0  0  0
  1  2  1  0  0  0  0
  1 25  1  0  0  0  0
  1 26  1  0  0  0  0
  1 27  1  0  0  0  0
  2  3  1  0  0  0  0
  2 12  1  0  0  0  0
  3  4  1  0  0  0  0
  3 28  1  0  0  0  0
  3 29  1  0  0  0  0
  4  5  1  0  0  0  0
  4 30  1  0  0  0  0
  4 31  1  0  0  0  0
  5  6  1  0  0  0  0
  5 10  2  0  0  0  0
  6  7  2  0  0  0  0
  6 32  1  0  0  0  0
  7  8  1  0  0  0  0
  7 33  1  0  0  0  0
  8  9  2  0  0  0  0
  8 34  1  0  0  0  0
  9 10  1  0  0  0  0
  9 35  1  0  0  0  0
 10 11  1  0  0  0  0
 12 13  2  0  0  0  0
 12 14  1  0  0  0  0
 14 15  1  0  0  0  0
 14 36  1  0  0  0  0
 14 37  1  0  0  0  0
 15 16  1  0  0  0  0
 15 24  2  0  0  0  0
 16 17  2  0  0  0  0
 16 38  1  0  0  0  0
 17 18  1  0  0  0  0
 18 19  2  0  0  0  0
 18 39  1  0  0  0  0
 19 20  1  0  0  0  0
 19 24  1  0  0  0  0
 20 21  2  0  0  0  0
 20 40  1  0  0  0  0
 21 22  1  0  0  0  0
 21 41  1  0  0  0  0
 22 23  2  0  0  0  0
 22 42  1  0  0  0  0
 23 24  1  0  0  0  0
 23 43  1  0  0  0  0
M  END
$$$$
