
 OpenBabel07202414133D

 47 50  0  0  1  0  0  0  0  0999 V2000
    1.0368    0.0701    0.2228 C   0  0  0  0  0  0  0  0  0  0  0  0
    2.5605    0.0417    0.0706 C   0  0  3  0  0  0  0  0  0  0  0  0
    3.0205    1.0340   -1.0355 C   0  0  0  0  0  0  0  0  0  0  0  0
    2.6806    0.5746   -2.3975 N   0  0  0  0  0  0  0  0  0  0  0  0
    3.1069   -0.8113   -2.6731 C   0  0  0  0  0  0  0  0  0  0  0  0
    2.6611   -1.8062   -1.5998 C   0  0  0  0  0  0  0  0  0  0  0  0
    3.0162   -1.3271   -0.2632 N   0  0  0  0  0  0  0  0  0  0  0  0
    3.8235   -2.0735    0.5731 C   0  0  0  0  0  0  0  0  0  0  0  0
    3.6394   -2.0632    1.9645 C   0  0  0  0  0  0  0  0  0  0  0  0
    4.4126   -2.8592    2.8196 C   0  0  0  0  0  0  0  0  0  0  0  0
    5.4041   -3.6809    2.2983 C   0  0  0  0  0  0  0  0  0  0  0  0
    5.6193   -3.6913    0.9278 C   0  0  0  0  0  0  0  0  0  0  0  0
    4.8438   -2.8983    0.0773 C   0  0  0  0  0  0  0  0  0  0  0  0
    6.8526   -4.6992    0.2681 Cl  0  0  0  0  0  0  0  0  0  0  0  0
    2.1435    1.4948   -3.2990 C   0  0  0  0  0  0  0  0  0  0  0  0
    1.8846    2.6510   -2.9614 O   0  0  0  0  0  0  0  0  0  0  0  0
    1.8087    1.0450   -4.6951 C   0  0  0  0  0  0  0  0  0  0  0  0
    2.7558    0.3850   -5.3824 C   0  0  0  0  0  0  0  0  0  0  0  0
    2.4508   -0.3212   -6.6407 C   0  0  0  0  0  0  0  0  0  0  0  0
    3.2459   -1.1284   -7.1086 O   0  0  0  0  0  0  0  0  0  0  0  0
    1.2449   -0.0630   -7.2133 N   0  0  0  0  0  0  0  0  0  0  0  0
    0.3136    0.8269   -6.6698 C   0  0  0  0  0  0  0  0  0  0  0  0
    0.5534    1.3995   -5.4082 C   0  0  0  0  0  0  0  0  0  0  0  0
   -0.3952    2.3097   -4.9213 C   0  0  0  0  0  0  0  0  0  0  0  0
   -1.5222    2.6518   -5.6842 C   0  0  0  0  0  0  0  0  0  0  0  0
   -1.7350    2.0693   -6.9293 C   0  0  0  0  0  0  0  0  0  0  0  0
   -0.8228    1.1395   -7.4215 C   0  0  0  0  0  0  0  0  0  0  0  0
    0.7047    1.0516    0.5762 H   0  0  0  0  0  0  0  0  0  0  0  0
    0.6985   -0.6841    0.9404 H   0  0  0  0  0  0  0  0  0  0  0  0
    0.5229   -0.1233   -0.7256 H   0  0  0  0  0  0  0  0  0  0  0  0
    3.0026    0.3832    1.0144 H   0  0  0  0  0  0  0  0  0  0  0  0
    4.1141    1.1268   -1.0056 H   0  0  0  0  0  0  0  0  0  0  0  0
    2.6094    2.0284   -0.8351 H   0  0  0  0  0  0  0  0  0  0  0  0
    4.2024   -0.7933   -2.7393 H   0  0  0  0  0  0  0  0  0  0  0  0
    2.7090   -1.1852   -3.6134 H   0  0  0  0  0  0  0  0  0  0  0  0
    3.0711   -2.7971   -1.8315 H   0  0  0  0  0  0  0  0  0  0  0  0
    1.5742   -1.9265   -1.6535 H   0  0  0  0  0  0  0  0  0  0  0  0
    2.8467   -1.4630    2.4033 H   0  0  0  0  0  0  0  0  0  0  0  0
    4.2237   -2.8434    3.8894 H   0  0  0  0  0  0  0  0  0  0  0  0
    5.9995   -4.3032    2.9610 H   0  0  0  0  0  0  0  0  0  0  0  0
    5.0675   -2.9265   -0.9862 H   0  0  0  0  0  0  0  0  0  0  0  0
    3.7519    0.2010   -4.9993 H   0  0  0  0  0  0  0  0  0  0  0  0
    1.0562   -0.5332   -8.0888 H   0  0  0  0  0  0  0  0  0  0  0  0
   -0.2652    2.8023   -3.9607 H   0  0  0  0  0  0  0  0  0  0  0  0
   -2.2247    3.3917   -5.3045 H   0  0  0  0  0  0  0  0  0  0  0  0
   -2.6011    2.3497   -7.5234 H   0  0  0  0  0  0  0  0  0  0  0  0
   -0.9875    0.6974   -8.3982 H   0  0  0  0  0  0  0  0  0  0  0  0
  1  2  1  0  0  0  0
  1 28  1  0  0  0  0
  1 29  1  0  0  0  0
  1 30  1  0  0  0  0
  2  3  1  0  0  0  0
  2  7  1  0  0  0  0
  2 31  1  0  0  0  0
  3  4  1  0  0  0  0
  3 32  1  0  0  0  0
  3 33  1  0  0  0  0
  4  5  1  0  0  0  0
  4 15  1  0  0  0  0
  5  6  1  0  0  0  0
  5 34  1  0  0  0  0
  5 35  1  0  0  0  0
  6  7  1  0  0  0  0
  6 36  1  0  0  0  0
  6 37  1  0  0  0  0
  7  8  1  0  0  0  0
  8  9  1  0  0  0  0
  8 13  2  0  0  0  0
  9 10  2  0  0  0  0
  9 38  1  0  0  0  0
 10 11  1  0  0  0  0
 10 39  1  0  0  0  0
 11 12  2  0  0  0  0
 11 40  1  0  0  0  0
 12 13  1  0  0  0  0
 12 14  1  0  0  0  0
 13 41  1  0  0  0  0
 15 16  2  0  0  0  0
 15 17  1  0  0  0  0
 17 18  2  0  0  0  0
 17 23  1  0  0  0  0
 18 19  1  0  0  0  0
 18 42  1  0  0  0  0
 19 20  2  0  0  0  0
 19 21  1  0  0  0  0
 21 22  1  0  0  0  0
 21 43  1  0  0  0  0
 22 23  1  0  0  0  0
 22 27  2  0  0  0  0
 23 24  2  0  0  0  0
 24 25  1  0  0  0  0
 24 44  1  0  0  0  0
 25 26  2  0  0  0  0
 25 45  1  0  0  0  0
 26 27  1  0  0  0  0
 26 46  1  0  0  0  0
 27 47  1  0  0  0  0
M  END
$$$$
