
 OpenBabel07202414153D

 46 49  0  0  1  0  0  0  0  0999 V2000
    3.1484    0.9390   -0.3666 C   0  0  0  0  0  0  0  0  0  0  0  0
    3.6269   -0.0574   -1.2646 O   0  0  0  0  0  0  0  0  0  0  0  0
    3.8171   -1.3164   -0.7665 C   0  0  0  0  0  0  0  0  0  0  0  0
    3.5342   -1.7398    0.5253 C   0  0  0  0  0  0  0  0  0  0  0  0
    3.8105   -3.0617    0.9121 C   0  0  0  0  0  0  0  0  0  0  0  0
    4.4203   -3.9833    0.0383 C   0  0  0  0  0  0  0  0  0  0  0  0
    4.6695   -3.5477   -1.2715 C   0  0  0  0  0  0  0  0  0  0  0  0
    4.3639   -2.2350   -1.6653 C   0  0  0  0  0  0  0  0  0  0  0  0
    5.0722   -5.2722    0.5359 C   0  0  3  0  0  0  0  0  0  0  0  0
    5.1584   -5.4539    2.0920 C   0  0  0  0  0  0  0  0  0  0  0  0
    5.8531   -4.3860    2.9317 C   0  0  0  0  0  0  0  0  0  0  0  0
    6.9844   -3.5882    2.5573 C   0  0  0  0  0  0  0  0  0  0  0  0
    7.3866   -2.7242    3.5501 C   0  0  0  0  0  0  0  0  0  0  0  0
    6.4263   -2.8738    4.9546 S   0  0  0  0  0  0  0  0  0  0  0  0
    5.4819   -4.1019    4.2318 C   0  0  0  0  0  0  0  0  0  0  0  0
    4.7046   -6.6657   -0.0561 C   0  0  0  0  0  0  0  0  0  0  0  0
    5.4135   -7.5811    0.3874 O   0  0  0  0  0  0  0  0  0  0  0  0
    3.7005   -6.8742   -1.0098 N   0  0  0  0  0  0  0  0  0  0  0  0
    3.4108   -8.1918   -1.4751 C   0  0  0  0  0  0  0  0  0  0  0  0
    2.3851   -8.7094   -2.3853 C   0  0  0  0  0  0  0  0  0  0  0  0
    1.3505   -8.2378   -3.2322 C   0  0  0  0  0  0  0  0  0  0  0  0
    0.5224   -9.1619   -3.9233 C   0  0  0  0  0  0  0  0  0  0  0  0
    0.6865  -10.5398   -3.7771 C   0  0  0  0  0  0  0  0  0  0  0  0
    1.7065  -11.0359   -2.9772 C   0  0  0  0  0  0  0  0  0  0  0  0
    2.5257  -10.1062   -2.3267 C   0  0  0  0  0  0  0  0  0  0  0  0
    3.6164  -10.3168   -1.5429 N   0  0  0  0  0  0  0  0  0  0  0  0
    4.1514   -9.2177   -1.0458 N   0  0  0  0  0  0  0  0  0  0  0  0
    3.0135    1.8646   -0.9362 H   0  0  0  0  0  0  0  0  0  0  0  0
    3.8761    1.1410    0.4269 H   0  0  0  0  0  0  0  0  0  0  0  0
    2.1738    0.6668    0.0514 H   0  0  0  0  0  0  0  0  0  0  0  0
    3.1382   -1.0624    1.2759 H   0  0  0  0  0  0  0  0  0  0  0  0
    3.6139   -3.3118    1.9522 H   0  0  0  0  0  0  0  0  0  0  0  0
    5.1837   -4.1926   -1.9817 H   0  0  0  0  0  0  0  0  0  0  0  0
    4.6049   -1.9075   -2.6743 H   0  0  0  0  0  0  0  0  0  0  0  0
    6.1210   -5.1554    0.2146 H   0  0  0  0  0  0  0  0  0  0  0  0
    5.6882   -6.3839    2.3388 H   0  0  0  0  0  0  0  0  0  0  0  0
    4.1385   -5.5890    2.4798 H   0  0  0  0  0  0  0  0  0  0  0  0
    7.4798   -3.6439    1.5936 H   0  0  0  0  0  0  0  0  0  0  0  0
    8.2055   -2.0086    3.5296 H   0  0  0  0  0  0  0  0  0  0  0  0
    4.6884   -4.5638    4.8099 H   0  0  0  0  0  0  0  0  0  0  0  0
    3.1151   -6.1202   -1.3373 H   0  0  0  0  0  0  0  0  0  0  0  0
    1.1831   -7.1773   -3.3859 H   0  0  0  0  0  0  0  0  0  0  0  0
   -0.2659   -8.8058   -4.5863 H   0  0  0  0  0  0  0  0  0  0  0  0
    0.0269  -11.2360   -4.2940 H   0  0  0  0  0  0  0  0  0  0  0  0
    1.8587  -12.1050   -2.8579 H   0  0  0  0  0  0  0  0  0  0  0  0
    4.0461  -11.2028   -1.3126 H   0  0  0  0  0  0  0  0  0  0  0  0
  1  2  1  0  0  0  0
  1 28  1  0  0  0  0
  1 29  1  0  0  0  0
  1 30  1  0  0  0  0
  2  3  1  0  0  0  0
  3  4  1  0  0  0  0
  3  8  2  0  0  0  0
  4  5  2  0  0  0  0
  4 31  1  0  0  0  0
  5  6  1  0  0  0  0
  5 32  1  0  0  0  0
  6  7  2  0  0  0  0
  6  9  1  0  0  0  0
  7  8  1  0  0  0  0
  7 33  1  0  0  0  0
  8 34  1  0  0  0  0
  9 10  1  0  0  0  0
  9 16  1  0  0  0  0
  9 35  1  0  0  0  0
 10 11  1  0  0  0  0
 10 36  1  0  0  0  0
 10 37  1  0  0  0  0
 11 12  1  0  0  0  0
 11 15  2  0  0  0  0
 12 13  2  0  0  0  0
 12 38  1  0  0  0  0
 13 14  1  0  0  0  0
 13 39  1  0  0  0  0
 14 15  1  0  0  0  0
 15 40  1  0  0  0  0
 16 17  2  0  0  0  0
 16 18  1  0  0  0  0
 18 19  1  0  0  0  0
 18 41  1  0  0  0  0
 19 20  1  0  0  0  0
 19 27  2  0  0  0  0
 20 21  1  0  0  0  0
 20 25  2  0  0  0  0
 21 22  2  0  0  0  0
 21 42  1  0  0  0  0
 22 23  1  0  0  0  0
 22 43  1  0  0  0  0
 23 24  2  0  0  0  0
 23 44  1  0  0  0  0
 24 25  1  0  0  0  0
 24 45  1  0  0  0  0
 25 26  1  0  0  0  0
 26 27  1  0  0  0  0
 26 46  1  0  0  0  0
M  END
$$$$
