
 OpenBabel07202414133D

 64 68  0  0  1  0  0  0  0  0999 V2000
    3.3515   -1.3648    0.7477 C   0  0  0  0  0  0  0  0  0  0  0  0
    2.5707   -0.4783   -0.1175 N   0  0  0  0  0  0  0  0  0  0  0  0
    1.1032   -0.6757   -0.2352 C   0  0  2  0  0  0  0  0  0  0  0  0
    0.3458    0.1176    0.8227 C   0  0  0  0  0  0  0  0  0  0  0  0
    0.1758   -0.8593    1.9717 C   0  0  0  0  0  0  0  0  0  0  0  0
    0.0142   -2.1880    1.3618 N   0  0  0  0  0  0  0  0  0  0  0  0
   -1.4043   -2.5859    1.3179 C   0  0  0  0  0  0  0  0  0  0  0  0
   -1.6083   -3.9679    0.7366 C   0  0  0  0  0  0  0  0  0  0  0  0
   -1.0048   -5.0900    1.3258 C   0  0  0  0  0  0  0  0  0  0  0  0
   -1.1417   -6.3533    0.7487 C   0  0  0  0  0  0  0  0  0  0  0  0
   -1.8904   -6.5109   -0.4164 C   0  0  0  0  0  0  0  0  0  0  0  0
   -2.5138   -5.4090   -0.9989 C   0  0  0  0  0  0  0  0  0  0  0  0
   -2.3781   -4.1452   -0.4232 C   0  0  0  0  0  0  0  0  0  0  0  0
    0.6152   -2.1166    0.0053 C   0  0  0  0  0  0  0  0  0  0  0  0
    3.2331    0.0299   -1.2501 C   0  0  0  0  0  0  0  0  0  0  0  0
    2.8789    1.2933   -1.7633 C   0  0  0  0  0  0  0  0  0  0  0  0
    3.5321    1.8592   -2.8775 C   0  0  0  0  0  0  0  0  0  0  0  0
    3.2032    3.2397   -3.4177 C   0  0  0  0  0  0  0  0  0  0  0  0
    1.7654    3.7319   -3.2601 C   0  0  0  0  0  0  0  0  0  0  0  0
    1.5257    4.8622   -2.8503 O   0  0  0  0  0  0  0  0  0  0  0  0
    0.8249    2.8083   -3.6593 N   0  0  0  0  0  0  0  0  0  0  0  0
   -0.5773    2.9939   -3.6602 C   0  0  0  0  0  0  0  0  0  0  0  0
   -1.3291    1.9716   -3.0773 C   0  0  0  0  0  0  0  0  0  0  0  0
   -2.6634    1.8316   -3.1819 N   0  0  0  0  0  0  0  0  0  0  0  0
   -3.2863    2.7558   -3.9398 C   0  0  0  0  0  0  0  0  0  0  0  0
   -2.6606    3.8465   -4.5492 C   0  0  0  0  0  0  0  0  0  0  0  0
   -1.2658    4.0133   -4.3765 C   0  0  0  0  0  0  0  0  0  0  0  0
   -0.6790    5.1482   -4.9931 C   0  0  0  0  0  0  0  0  0  0  0  0
   -1.4361    6.0615   -5.7377 C   0  0  0  0  0  0  0  0  0  0  0  0
   -2.7946    5.8426   -5.9315 C   0  0  0  0  0  0  0  0  0  0  0  0
   -3.4022    4.7409   -5.3424 C   0  0  0  0  0  0  0  0  0  0  0  0
    4.5984    1.1547   -3.4561 C   0  0  0  0  0  0  0  0  0  0  0  0
    4.9638   -0.0912   -2.9548 C   0  0  0  0  0  0  0  0  0  0  0  0
    6.2891   -0.9388   -3.6599 Cl  0  0  0  0  0  0  0  0  0  0  0  0
    4.2822   -0.6511   -1.8781 C   0  0  0  0  0  0  0  0  0  0  0  0
    2.8350   -1.5866    1.6822 H   0  0  0  0  0  0  0  0  0  0  0  0
    4.2972   -0.8858    1.0284 H   0  0  0  0  0  0  0  0  0  0  0  0
    3.5713   -2.3219    0.2628 H   0  0  0  0  0  0  0  0  0  0  0  0
    0.7584   -0.3536   -1.2272 H   0  0  0  0  0  0  0  0  0  0  0  0
   -0.6472    0.3853    0.4370 H   0  0  0  0  0  0  0  0  0  0  0  0
    0.8494    1.0387    1.1281 H   0  0  0  0  0  0  0  0  0  0  0  0
   -0.6481   -0.5762    2.6375 H   0  0  0  0  0  0  0  0  0  0  0  0
    1.0743   -0.8615    2.5963 H   0  0  0  0  0  0  0  0  0  0  0  0
   -1.9915   -1.8494    0.7533 H   0  0  0  0  0  0  0  0  0  0  0  0
   -1.8173   -2.5990    2.3353 H   0  0  0  0  0  0  0  0  0  0  0  0
   -0.4037   -4.9716    2.2251 H   0  0  0  0  0  0  0  0  0  0  0  0
   -0.6537   -7.2117    1.2022 H   0  0  0  0  0  0  0  0  0  0  0  0
   -1.9849   -7.4924   -0.8730 H   0  0  0  0  0  0  0  0  0  0  0  0
   -3.0975   -5.5314   -1.9074 H   0  0  0  0  0  0  0  0  0  0  0  0
   -2.8592   -3.2933   -0.8988 H   0  0  0  0  0  0  0  0  0  0  0  0
   -0.1157   -2.3539   -0.7765 H   0  0  0  0  0  0  0  0  0  0  0  0
    1.4076   -2.8649   -0.0878 H   0  0  0  0  0  0  0  0  0  0  0  0
    2.1058    1.8596   -1.2455 H   0  0  0  0  0  0  0  0  0  0  0  0
    3.4153    3.2673   -4.4948 H   0  0  0  0  0  0  0  0  0  0  0  0
    3.8700    3.9614   -2.9316 H   0  0  0  0  0  0  0  0  0  0  0  0
    1.1246    1.8422   -3.5880 H   0  0  0  0  0  0  0  0  0  0  0  0
   -0.8488    1.2063   -2.4726 H   0  0  0  0  0  0  0  0  0  0  0  0
   -4.3545    2.5847   -4.0571 H   0  0  0  0  0  0  0  0  0  0  0  0
    0.3815    5.3539   -4.8885 H   0  0  0  0  0  0  0  0  0  0  0  0
   -0.9579    6.9348   -6.1736 H   0  0  0  0  0  0  0  0  0  0  0  0
   -3.3796    6.5347   -6.5314 H   0  0  0  0  0  0  0  0  0  0  0  0
   -4.4667    4.5775   -5.5088 H   0  0  0  0  0  0  0  0  0  0  0  0
    5.1585    1.5828   -4.2838 H   0  0  0  0  0  0  0  0  0  0  0  0
    4.5889   -1.6355   -1.5370 H   0  0  0  0  0  0  0  0  0  0  0  0
  1  2  1  0  0  0  0
  1 36  1  0  0  0  0
  1 37  1  0  0  0  0
  1 38  1  0  0  0  0
  2  3  1  0  0  0  0
  2 15  1  0  0  0  0
  3  4  1  0  0  0  0
  3 14  1  0  0  0  0
  3 39  1  6  0  0  0
  4  5  1  0  0  0  0
  4 40  1  0  0  0  0
  4 41  1  0  0  0  0
  5  6  1  0  0  0  0
  5 42  1  0  0  0  0
  5 43  1  0  0  0  0
  6  7  1  0  0  0  0
  6 14  1  0  0  0  0
  7  8  1  0  0  0  0
  7 44  1  0  0  0  0
  7 45  1  0  0  0  0
  8  9  2  0  0  0  0
  8 13  1  0  0  0  0
  9 10  1  0  0  0  0
  9 46  1  0  0  0  0
 10 11  2  0  0  0  0
 10 47  1  0  0  0  0
 11 12  1  0  0  0  0
 11 48  1  0  0  0  0
 12 13  2  0  0  0  0
 12 49  1  0  0  0  0
 13 50  1  0  0  0  0
 14 51  1  0  0  0  0
 14 52  1  0  0  0  0
 15 16  2  0  0  0  0
 15 35  1  0  0  0  0
 16 17  1  0  0  0  0
 16 53  1  0  0  0  0
 17 18  1  0  0  0  0
 17 32  2  0  0  0  0
 18 19  1  0  0  0  0
 18 54  1  0  0  0  0
 18 55  1  0  0  0  0
 19 20  2  0  0  0  0
 19 21  1  0  0  0  0
 21 22  1  0  0  0  0
 21 56  1  0  0  0  0
 22 23  2  0  0  0  0
 22 27  1  0  0  0  0
 23 24  1  0  0  0  0
 23 57  1  0  0  0  0
 24 25  2  0  0  0  0
 25 26  1  0  0  0  0
 25 58  1  0  0  0  0
 26 27  2  0  0  0  0
 26 31  1  0  0  0  0
 27 28  1  0  0  0  0
 28 29  2  0  0  0  0
 28 59  1  0  0  0  0
 29 30  1  0  0  0  0
 29 60  1  0  0  0  0
 30 31  2  0  0  0  0
 30 61  1  0  0  0  0
 31 62  1  0  0  0  0
 32 33  1  0  0  0  0
 32 63  1  0  0  0  0
 33 34  1  0  0  0  0
 33 35  2  0  0  0  0
 35 64  1  0  0  0  0
M  END
$$$$
