
 OpenBabel07202414113D

 51 53  0  0  0  0  0  0  0  0999 V2000
    3.7828   -2.4857    3.2401 C   0  0  0  0  0  0  0  0  0  0  0  0
    3.9188   -1.4422    2.4115 C   0  0  0  0  0  0  0  0  0  0  0  0
    4.6167   -0.2090    2.8574 C   0  0  0  0  0  0  0  0  0  0  0  0
    5.1330   -0.1052    3.9617 O   0  0  0  0  0  0  0  0  0  0  0  0
    4.6385    0.7745    1.8978 N   0  0  0  0  0  0  0  0  0  0  0  0
    5.3327    2.0361    2.1175 C   0  0  0  0  0  0  0  0  0  0  0  0
    6.8008    1.9298    1.7155 C   0  0  0  0  0  0  0  0  0  0  0  0
    7.5821    3.2018    1.9997 C   0  0  0  0  0  0  0  0  0  0  0  0
    7.0459    4.1774    2.5266 O   0  0  0  0  0  0  0  0  0  0  0  0
    8.9254    3.2499    1.5919 N   0  0  0  0  0  0  0  0  0  0  0  0
    9.6535    2.0505    1.1484 C   0  0  0  0  0  0  0  0  0  0  0  0
   10.2398    2.0914   -0.2476 C   0  0  0  0  0  0  0  0  0  0  0  0
   11.3819    1.3123   -0.5175 C   0  0  0  0  0  0  0  0  0  0  0  0
   11.8423    1.1319   -1.8241 C   0  0  0  0  0  0  0  0  0  0  0  0
   11.1676    1.7256   -2.8846 C   0  0  0  0  0  0  0  0  0  0  0  0
   10.0551    2.5284   -2.6317 C   0  0  0  0  0  0  0  0  0  0  0  0
    9.5930    2.7121   -1.3231 C   0  0  0  0  0  0  0  0  0  0  0  0
    9.7576    4.2848    2.2311 C   0  0  0  0  0  0  0  0  0  0  0  0
    9.5037    5.7739    1.9691 C   0  0  0  0  0  0  0  0  0  0  0  0
    8.5580    6.1063    1.0422 N   0  0  0  0  0  0  0  0  0  0  0  0
    8.2820    7.3963    0.6705 C   0  0  0  0  0  0  0  0  0  0  0  0
    7.3680    7.6795   -0.0949 O   0  0  0  0  0  0  0  0  0  0  0  0
    9.1546    8.4245    1.2618 C   0  0  0  0  0  0  0  0  0  0  0  0
    9.0803    9.7613    0.8579 C   0  0  0  0  0  0  0  0  0  0  0  0
    9.9055   10.7067    1.4657 C   0  0  0  0  0  0  0  0  0  0  0  0
   10.7711   10.3177    2.4891 C   0  0  0  0  0  0  0  0  0  0  0  0
   10.8433    8.9753    2.8768 C   0  0  0  0  0  0  0  0  0  0  0  0
   10.0554    8.0095    2.2455 C   0  0  0  0  0  0  0  0  0  0  0  0
   10.2334    6.6558    2.5809 N   0  0  0  0  0  0  0  0  0  0  0  0
    3.2818   -3.3924    2.9227 H   0  0  0  0  0  0  0  0  0  0  0  0
    4.1652   -2.4540    4.2581 H   0  0  0  0  0  0  0  0  0  0  0  0
    3.5322   -1.4868    1.4023 H   0  0  0  0  0  0  0  0  0  0  0  0
    4.2262    0.6051    0.9907 H   0  0  0  0  0  0  0  0  0  0  0  0
    5.2368    2.3162    3.1726 H   0  0  0  0  0  0  0  0  0  0  0  0
    4.8189    2.7969    1.5204 H   0  0  0  0  0  0  0  0  0  0  0  0
    6.8669    1.7017    0.6457 H   0  0  0  0  0  0  0  0  0  0  0  0
    7.2551    1.1101    2.2832 H   0  0  0  0  0  0  0  0  0  0  0  0
    9.0140    1.1667    1.1686 H   0  0  0  0  0  0  0  0  0  0  0  0
   10.4420    1.8601    1.8877 H   0  0  0  0  0  0  0  0  0  0  0  0
   11.9047    0.8050    0.2923 H   0  0  0  0  0  0  0  0  0  0  0  0
   12.7103    0.5047   -2.0129 H   0  0  0  0  0  0  0  0  0  0  0  0
   11.5008    1.5542   -3.9048 H   0  0  0  0  0  0  0  0  0  0  0  0
    9.5309    2.9914   -3.4657 H   0  0  0  0  0  0  0  0  0  0  0  0
    8.7053    3.3184   -1.1644 H   0  0  0  0  0  0  0  0  0  0  0  0
   10.7962    4.1225    1.9133 H   0  0  0  0  0  0  0  0  0  0  0  0
    9.7225    4.1189    3.3154 H   0  0  0  0  0  0  0  0  0  0  0  0
    7.8986    5.4024    0.7435 H   0  0  0  0  0  0  0  0  0  0  0  0
    8.3934   10.0589    0.0696 H   0  0  0  0  0  0  0  0  0  0  0  0
    9.8710   11.7455    1.1461 H   0  0  0  0  0  0  0  0  0  0  0  0
   11.4000   11.0572    2.9795 H   0  0  0  0  0  0  0  0  0  0  0  0
   11.5275    8.6767    3.6670 H   0  0  0  0  0  0  0  0  0  0  0  0
  1  2  2  0  0  0  0
  1 30  1  0  0  0  0
  1 31  1  0  0  0  0
  2  3  1  0  0  0  0
  2 32  1  0  0  0  0
  3  4  2  0  0  0  0
  3  5  1  0  0  0  0
  5  6  1  0  0  0  0
  5 33  1  0  0  0  0
  6  7  1  0  0  0  0
  6 34  1  0  0  0  0
  6 35  1  0  0  0  0
  7  8  1  0  0  0  0
  7 36  1  0  0  0  0
  7 37  1  0  0  0  0
  8  9  2  0  0  0  0
  8 10  1  0  0  0  0
 10 11  1  0  0  0  0
 10 18  1  0  0  0  0
 11 12  1  0  0  0  0
 11 38  1  0  0  0  0
 11 39  1  0  0  0  0
 12 13  1  0  0  0  0
 12 17  2  0  0  0  0
 13 14  2  0  0  0  0
 13 40  1  0  0  0  0
 14 15  1  0  0  0  0
 14 41  1  0  0  0  0
 15 16  2  0  0  0  0
 15 42  1  0  0  0  0
 16 17  1  0  0  0  0
 16 43  1  0  0  0  0
 17 44  1  0  0  0  0
 18 19  1  0  0  0  0
 18 45  1  0  0  0  0
 18 46  1  0  0  0  0
 19 20  1  0  0  0  0
 19 29  2  0  0  0  0
 20 21  1  0  0  0  0
 20 47  1  0  0  0  0
 21 22  2  0  0  0  0
 21 23  1  0  0  0  0
 23 24  1  0  0  0  0
 23 28  2  0  0  0  0
 24 25  2  0  0  0  0
 24 48  1  0  0  0  0
 25 26  1  0  0  0  0
 25 49  1  0  0  0  0
 26 27  2  0  0  0  0
 26 50  1  0  0  0  0
 27 28  1  0  0  0  0
 27 51  1  0  0  0  0
 28 29  1  0  0  0  0
M  END
$$$$
