
 OpenBabel07202414143D

 48 51  0  0  0  0  0  0  0  0999 V2000
    2.0907    1.9252    1.6506 C   0  0  0  0  0  0  0  0  0  0  0  0
    1.5536    0.6463    1.9994 O   0  0  0  0  0  0  0  0  0  0  0  0
    2.5207   -0.2333    2.4364 C   0  0  0  0  0  0  0  0  0  0  0  0
    2.1330   -1.4895    2.7914 C   0  0  0  0  0  0  0  0  0  0  0  0
    3.1706   -2.2994    3.1705 C   0  0  0  0  0  0  0  0  0  0  0  0
    2.8723   -3.9196    3.6557 Cl  0  0  0  0  0  0  0  0  0  0  0  0
    4.4714   -1.9485    3.1969 N   0  0  0  0  0  0  0  0  0  0  0  0
    4.7368   -0.6895    2.8504 C   0  0  0  0  0  0  0  0  0  0  0  0
    6.0710   -0.2751    2.8397 N   0  0  0  0  0  0  0  0  0  0  0  0
    6.5934    1.0039    2.6051 C   0  0  0  0  0  0  0  0  0  0  0  0
    5.8653    2.1737    2.8684 C   0  0  0  0  0  0  0  0  0  0  0  0
    6.3595    3.4285    2.5233 C   0  0  0  0  0  0  0  0  0  0  0  0
    5.4178    4.8338    2.8384 Cl  0  0  0  0  0  0  0  0  0  0  0  0
    7.6049    3.5515    1.9209 C   0  0  0  0  0  0  0  0  0  0  0  0
    8.3664    2.4059    1.6595 C   0  0  0  0  0  0  0  0  0  0  0  0
    9.7421    2.5357    1.0556 C   0  0  0  0  0  0  0  0  0  0  0  0
    9.9552    1.7254   -0.2108 C   0  0  0  0  0  0  0  0  0  0  0  0
   10.9621    1.0355   -0.3449 O   0  0  0  0  0  0  0  0  0  0  0  0
    9.0064    1.9354   -1.1949 N   0  0  0  0  0  0  0  0  0  0  0  0
    9.0538    1.3061   -2.4626 C   0  0  0  0  0  0  0  0  0  0  0  0
    9.4968   -0.0112   -2.6004 C   0  0  0  0  0  0  0  0  0  0  0  0
    9.5466   -0.6849   -3.7703 N   0  0  0  0  0  0  0  0  0  0  0  0
    9.1686    0.0014   -4.8692 C   0  0  0  0  0  0  0  0  0  0  0  0
    8.7278    1.3248   -4.8673 C   0  0  0  0  0  0  0  0  0  0  0  0
    8.4005    1.9878   -6.0633 C   0  0  0  0  0  0  0  0  0  0  0  0
    8.0040    3.3230   -6.0513 C   0  0  0  0  0  0  0  0  0  0  0  0
    7.9209    4.0076   -4.8461 C   0  0  0  0  0  0  0  0  0  0  0  0
    8.2311    3.3577   -3.6512 C   0  0  0  0  0  0  0  0  0  0  0  0
    8.6467    2.0008   -3.6290 C   0  0  0  0  0  0  0  0  0  0  0  0
    7.8520    1.1409    2.0042 C   0  0  0  0  0  0  0  0  0  0  0  0
    3.7910    0.1758    2.4729 N   0  0  0  0  0  0  0  0  0  0  0  0
    1.2963    2.5119    1.1802 H   0  0  0  0  0  0  0  0  0  0  0  0
    2.9084    1.8454    0.9232 H   0  0  0  0  0  0  0  0  0  0  0  0
    2.4206    2.4614    2.5485 H   0  0  0  0  0  0  0  0  0  0  0  0
    1.1032   -1.8107    2.7716 H   0  0  0  0  0  0  0  0  0  0  0  0
    6.6995   -1.0593    2.8845 H   0  0  0  0  0  0  0  0  0  0  0  0
    4.8999    2.1160    3.3621 H   0  0  0  0  0  0  0  0  0  0  0  0
    7.9816    4.5395    1.6684 H   0  0  0  0  0  0  0  0  0  0  0  0
   10.4706    2.1999    1.8034 H   0  0  0  0  0  0  0  0  0  0  0  0
    9.9758    3.5831    0.8279 H   0  0  0  0  0  0  0  0  0  0  0  0
    8.3815    2.7220   -1.0826 H   0  0  0  0  0  0  0  0  0  0  0  0
    9.7989   -0.6001   -1.7394 H   0  0  0  0  0  0  0  0  0  0  0  0
    9.2527   -0.5639   -5.7934 H   0  0  0  0  0  0  0  0  0  0  0  0
    8.4756    1.4699   -7.0174 H   0  0  0  0  0  0  0  0  0  0  0  0
    7.7749    3.8309   -6.9842 H   0  0  0  0  0  0  0  0  0  0  0  0
    7.6310    5.0558   -4.8345 H   0  0  0  0  0  0  0  0  0  0  0  0
    8.1836    3.9440   -2.7409 H   0  0  0  0  0  0  0  0  0  0  0  0
    8.4371    0.2483    1.7846 H   0  0  0  0  0  0  0  0  0  0  0  0
  1  2  1  0  0  0  0
  1 32  1  0  0  0  0
  1 33  1  0  0  0  0
  1 34  1  0  0  0  0
  2  3  1  0  0  0  0
  3  4  2  0  0  0  0
  3 31  1  0  0  0  0
  4  5  1  0  0  0  0
  4 35  1  0  0  0  0
  5  6  1  0  0  0  0
  5  7  2  0  0  0  0
  7  8  1  0  0  0  0
  8  9  1  0  0  0  0
  8 31  2  0  0  0  0
  9 10  1  0  0  0  0
  9 36  1  0  0  0  0
 10 11  2  0  0  0  0
 10 30  1  0  0  0  0
 11 12  1  0  0  0  0
 11 37  1  0  0  0  0
 12 13  1  0  0  0  0
 12 14  2  0  0  0  0
 14 15  1  0  0  0  0
 14 38  1  0  0  0  0
 15 16  1  0  0  0  0
 15 30  2  0  0  0  0
 16 17  1  0  0  0  0
 16 39  1  0  0  0  0
 16 40  1  0  0  0  0
 17 18  2  0  0  0  0
 17 19  1  0  0  0  0
 19 20  1  0  0  0  0
 19 41  1  0  0  0  0
 20 21  2  0  0  0  0
 20 29  1  0  0  0  0
 21 22  1  0  0  0  0
 21 42  1  0  0  0  0
 22 23  2  0  0  0  0
 23 24  1  0  0  0  0
 23 43  1  0  0  0  0
 24 25  2  0  0  0  0
 24 29  1  0  0  0  0
 25 26  1  0  0  0  0
 25 44  1  0  0  0  0
 26 27  2  0  0  0  0
 26 45  1  0  0  0  0
 27 28  1  0  0  0  0
 27 46  1  0  0  0  0
 28 29  2  0  0  0  0
 28 47  1  0  0  0  0
 30 48  1  0  0  0  0
M  END
$$$$
