
 OpenBabel07202414133D

 47 50  0  0  0  0  0  0  0  0999 V2000
    7.7242    2.6680    0.1065 C   0  0  0  0  0  0  0  0  0  0  0  0
    7.3614    2.7586   -1.3241 N   0  0  0  0  0  0  0  0  0  0  0  0
    7.5686    4.1360   -1.8345 C   0  0  0  0  0  0  0  0  0  0  0  0
    8.0427    1.5480   -2.3179 S   0  0  0  0  0  0  0  0  0  0  0  0
    7.6711    1.7959   -3.6939 O   0  0  0  0  0  0  0  0  0  0  0  0
    9.4243    1.3670   -1.9270 O   0  0  0  0  0  0  0  0  0  0  0  0
    7.1657    0.0891   -1.7870 C   0  0  0  0  0  0  0  0  0  0  0  0
    5.9958   -0.3063   -2.4334 C   0  0  0  0  0  0  0  0  0  0  0  0
    5.3382   -1.4623   -2.0024 C   0  0  0  0  0  0  0  0  0  0  0  0
    5.8737   -2.2380   -0.9659 C   0  0  0  0  0  0  0  0  0  0  0  0
    7.0848   -1.8688   -0.3655 C   0  0  0  0  0  0  0  0  0  0  0  0
    7.7158   -0.6829   -0.7606 C   0  0  0  0  0  0  0  0  0  0  0  0
    7.7114   -2.7178    0.6887 C   0  0  0  0  0  0  0  0  0  0  0  0
    7.1010   -3.5418    1.3327 O   0  0  0  0  0  0  0  0  0  0  0  0
    9.1314   -2.5427    0.8813 N   0  0  0  0  0  0  0  0  0  0  0  0
    9.7857   -3.2346    1.8926 C   0  0  0  0  0  0  0  0  0  0  0  0
   10.9390   -4.0184    1.8231 C   0  0  0  0  0  0  0  0  0  0  0  0
   11.3294   -4.4404    3.0901 N   0  0  0  0  0  0  0  0  0  0  0  0
   10.4215   -3.9344    3.8775 C   0  0  0  0  0  0  0  0  0  0  0  0
    9.4828   -3.1941    3.2269 N   0  0  0  0  0  0  0  0  0  0  0  0
    8.5703   -2.5549    4.0310 C   0  0  0  0  0  0  0  0  0  0  0  0
    8.7721   -2.8392    5.3250 C   0  0  0  0  0  0  0  0  0  0  0  0
   10.1615   -3.9078    5.5905 S   0  0  0  0  0  0  0  0  0  0  0  0
   11.6569   -4.4617    0.6373 C   0  0  0  0  0  0  0  0  0  0  0  0
   13.0152   -4.7972    0.7493 C   0  0  0  0  0  0  0  0  0  0  0  0
   13.7128   -5.3304   -0.3374 C   0  0  0  0  0  0  0  0  0  0  0  0
   13.0570   -5.5403   -1.5473 C   0  0  0  0  0  0  0  0  0  0  0  0
   11.7111   -5.2027   -1.6760 C   0  0  0  0  0  0  0  0  0  0  0  0
   11.0133   -4.6659   -0.5899 C   0  0  0  0  0  0  0  0  0  0  0  0
    7.1899    3.4303    0.6820 H   0  0  0  0  0  0  0  0  0  0  0  0
    8.7992    2.8150    0.2458 H   0  0  0  0  0  0  0  0  0  0  0  0
    7.4308    1.7028    0.5240 H   0  0  0  0  0  0  0  0  0  0  0  0
    7.0722    4.8537   -1.1714 H   0  0  0  0  0  0  0  0  0  0  0  0
    7.1209    4.2560   -2.8248 H   0  0  0  0  0  0  0  0  0  0  0  0
    8.6338    4.3830   -1.8730 H   0  0  0  0  0  0  0  0  0  0  0  0
    5.5950    0.2763   -3.2590 H   0  0  0  0  0  0  0  0  0  0  0  0
    4.4110   -1.7608   -2.4909 H   0  0  0  0  0  0  0  0  0  0  0  0
    5.3404   -3.1393   -0.6524 H   0  0  0  0  0  0  0  0  0  0  0  0
    8.6109   -0.3316   -0.2672 H   0  0  0  0  0  0  0  0  0  0  0  0
    9.7135   -2.0283    0.2294 H   0  0  0  0  0  0  0  0  0  0  0  0
    7.8066   -1.9174    3.6121 H   0  0  0  0  0  0  0  0  0  0  0  0
    8.1743   -2.4724    6.1537 H   0  0  0  0  0  0  0  0  0  0  0  0
   13.5376   -4.6710    1.6971 H   0  0  0  0  0  0  0  0  0  0  0  0
   14.7608   -5.6004   -0.2308 H   0  0  0  0  0  0  0  0  0  0  0  0
   13.5917   -5.9821   -2.3851 H   0  0  0  0  0  0  0  0  0  0  0  0
   11.1987   -5.3845   -2.6178 H   0  0  0  0  0  0  0  0  0  0  0  0
    9.9541   -4.4667   -0.7154 H   0  0  0  0  0  0  0  0  0  0  0  0
  1  2  1  0  0  0  0
  1 30  1  0  0  0  0
  1 31  1  0  0  0  0
  1 32  1  0  0  0  0
  2  3  1  0  0  0  0
  2  4  1  0  0  0  0
  3 33  1  0  0  0  0
  3 34  1  0  0  0  0
  3 35  1  0  0  0  0
  4  5  2  0  0  0  0
  4  6  2  0  0  0  0
  4  7  1  0  0  0  0
  7  8  1  0  0  0  0
  7 12  2  0  0  0  0
  8  9  2  0  0  0  0
  8 36  1  0  0  0  0
  9 10  1  0  0  0  0
  9 37  1  0  0  0  0
 10 11  2  0  0  0  0
 10 38  1  0  0  0  0
 11 12  1  0  0  0  0
 11 13  1  0  0  0  0
 12 39  1  0  0  0  0
 13 14  2  0  0  0  0
 13 15  1  0  0  0  0
 15 16  1  0  0  0  0
 15 40  1  0  0  0  0
 16 17  2  0  0  0  0
 16 20  1  0  0  0  0
 17 18  1  0  0  0  0
 17 24  1  0  0  0  0
 18 19  2  0  0  0  0
 19 20  1  0  0  0  0
 19 23  1  0  0  0  0
 20 21  1  0  0  0  0
 21 22  2  0  0  0  0
 21 41  1  0  0  0  0
 22 23  1  0  0  0  0
 22 42  1  0  0  0  0
 24 25  1  0  0  0  0
 24 29  2  0  0  0  0
 25 26  2  0  0  0  0
 25 43  1  0  0  0  0
 26 27  1  0  0  0  0
 26 44  1  0  0  0  0
 27 28  2  0  0  0  0
 27 45  1  0  0  0  0
 28 29  1  0  0  0  0
 28 46  1  0  0  0  0
 29 47  1  0  0  0  0
M  END
$$$$
