
 OpenBabel07202414133D

 50 53  0  0  0  0  0  0  0  0999 V2000
    0.6172    1.6297   -1.4954 C   0  0  0  0  0  0  0  0  0  0  0  0
    2.0857    1.8708   -1.7245 C   0  0  0  0  0  0  0  0  0  0  0  0
    2.6400    1.9153   -3.0087 C   0  0  0  0  0  0  0  0  0  0  0  0
    1.6673    1.6178   -4.6071 Br  0  0  0  0  0  0  0  0  0  0  0  0
    3.9923    2.1874   -3.1394 C   0  0  0  0  0  0  0  0  0  0  0  0
    4.8275    2.3964   -2.1003 N   0  0  0  0  0  0  0  0  0  0  0  0
    4.3487    2.3272   -0.8381 C   0  0  0  0  0  0  0  0  0  0  0  0
    5.2737    2.4274    0.2349 N   0  0  0  0  0  0  0  0  0  0  0  0
    6.6908    2.4577    0.1382 C   0  0  0  0  0  0  0  0  0  0  0  0
    7.3731    1.8161   -0.9057 C   0  0  0  0  0  0  0  0  0  0  0  0
    8.7582    1.8839   -1.0066 C   0  0  0  0  0  0  0  0  0  0  0  0
    9.5496    1.1428   -2.3449 Cl  0  0  0  0  0  0  0  0  0  0  0  0
    9.5047    2.5348   -0.0288 C   0  0  0  0  0  0  0  0  0  0  0  0
    8.8673    3.1113    1.0830 C   0  0  0  0  0  0  0  0  0  0  0  0
    9.7057    3.6943    2.2121 C   0  0  0  0  0  0  0  0  0  0  0  0
    9.5066    5.1807    2.5250 C   0  0  0  0  0  0  0  0  0  0  0  0
    9.3303    5.6036    3.6561 O   0  0  0  0  0  0  0  0  0  0  0  0
    9.6091    5.9535    1.4014 N   0  0  0  0  0  0  0  0  0  0  0  0
    9.5229    7.3644    1.3174 C   0  0  0  0  0  0  0  0  0  0  0  0
    8.6268    7.7860    0.3405 C   0  0  0  0  0  0  0  0  0  0  0  0
    8.9068    8.7138   -0.5870 N   0  0  0  0  0  0  0  0  0  0  0  0
   10.1062    9.3174   -0.4660 C   0  0  0  0  0  0  0  0  0  0  0  0
   10.9639    9.1670    0.6244 C   0  0  0  0  0  0  0  0  0  0  0  0
   12.1034    9.9763    0.7581 C   0  0  0  0  0  0  0  0  0  0  0  0
   12.9175    9.8680    1.8813 C   0  0  0  0  0  0  0  0  0  0  0  0
   12.6263    8.9133    2.8536 C   0  0  0  0  0  0  0  0  0  0  0  0
   11.5296    8.0543    2.6944 C   0  0  0  0  0  0  0  0  0  0  0  0
   10.6598    8.1707    1.5813 C   0  0  0  0  0  0  0  0  0  0  0  0
    7.4591    3.0666    1.1518 C   0  0  0  0  0  0  0  0  0  0  0  0
    2.9809    2.0864   -0.6406 C   0  0  0  0  0  0  0  0  0  0  0  0
    2.5009    2.0689    0.7242 N   0  3  0  0  0  0  0  0  0  0  0  0
    1.8971    1.0617    1.1138 O   0  5  0  0  0  0  0  0  0  0  0  0
    2.7416    3.0714    1.4127 O   0  0  0  0  0  0  0  0  0  0  0  0
    0.0421    1.5334   -2.4188 H   0  0  0  0  0  0  0  0  0  0  0  0
    0.1766    2.4691   -0.9468 H   0  0  0  0  0  0  0  0  0  0  0  0
    0.4613    0.6999   -0.9413 H   0  0  0  0  0  0  0  0  0  0  0  0
    4.4741    2.2375   -4.1123 H   0  0  0  0  0  0  0  0  0  0  0  0
    4.9189    3.0379    0.9716 H   0  0  0  0  0  0  0  0  0  0  0  0
    6.8290    1.2546   -1.6599 H   0  0  0  0  0  0  0  0  0  0  0  0
   10.5881    2.5592   -0.1254 H   0  0  0  0  0  0  0  0  0  0  0  0
   10.7708    3.5799    1.9706 H   0  0  0  0  0  0  0  0  0  0  0  0
    9.5218    3.1067    3.1164 H   0  0  0  0  0  0  0  0  0  0  0  0
    9.3601    5.4840    0.5366 H   0  0  0  0  0  0  0  0  0  0  0  0
    7.6689    7.2857    0.2201 H   0  0  0  0  0  0  0  0  0  0  0  0
   10.3664    9.9580   -1.3039 H   0  0  0  0  0  0  0  0  0  0  0  0
   12.3399   10.7235    0.0024 H   0  0  0  0  0  0  0  0  0  0  0  0
   13.7620   10.5405    2.0041 H   0  0  0  0  0  0  0  0  0  0  0  0
   13.2476    8.8499    3.7444 H   0  0  0  0  0  0  0  0  0  0  0  0
   11.3161    7.3337    3.4821 H   0  0  0  0  0  0  0  0  0  0  0  0
    6.9575    3.5055    2.0131 H   0  0  0  0  0  0  0  0  0  0  0  0
  1  2  1  0  0  0  0
  1 34  1  0  0  0  0
  1 35  1  0  0  0  0
  1 36  1  0  0  0  0
  2  3  2  0  0  0  0
  2 30  1  0  0  0  0
  3  4  1  0  0  0  0
  3  5  1  0  0  0  0
  5  6  2  0  0  0  0
  5 37  1  0  0  0  0
  6  7  1  0  0  0  0
  7  8  1  0  0  0  0
  7 30  2  0  0  0  0
  8  9  1  0  0  0  0
  8 38  1  0  0  0  0
  9 10  2  0  0  0  0
  9 29  1  0  0  0  0
 10 11  1  0  0  0  0
 10 39  1  0  0  0  0
 11 12  1  0  0  0  0
 11 13  2  0  0  0  0
 13 14  1  0  0  0  0
 13 40  1  0  0  0  0
 14 15  1  0  0  0  0
 14 29  2  0  0  0  0
 15 16  1  0  0  0  0
 15 41  1  0  0  0  0
 15 42  1  0  0  0  0
 16 17  2  0  0  0  0
 16 18  1  0  0  0  0
 18 19  1  0  0  0  0
 18 43  1  0  0  0  0
 19 20  2  0  0  0  0
 19 28  1  0  0  0  0
 20 21  1  0  0  0  0
 20 44  1  0  0  0  0
 21 22  2  0  0  0  0
 22 23  1  0  0  0  0
 22 45  1  0  0  0  0
 23 24  2  0  0  0  0
 23 28  1  0  0  0  0
 24 25  1  0  0  0  0
 24 46  1  0  0  0  0
 25 26  2  0  0  0  0
 25 47  1  0  0  0  0
 26 27  1  0  0  0  0
 26 48  1  0  0  0  0
 27 28  2  0  0  0  0
 27 49  1  0  0  0  0
 29 50  1  0  0  0  0
 30 31  1  0  0  0  0
 31 32  1  0  0  0  0
 31 33  2  0  0  0  0
M  CHG  2  31   1  32  -1
M  END
$$$$
