
 OpenBabel07202414193D

 58 61  0  0  1  0  0  0  0  0999 V2000
    1.2450    0.0238    0.0058 O   0  0  0  0  0  0  0  0  0  0  0  0
    2.4230   -0.2164   -0.2506 C   0  0  0  0  0  0  0  0  0  0  0  0
    3.0227   -1.5933    0.0374 C   0  0  0  0  0  0  0  0  0  0  0  0
    2.2588   -2.3561    0.9388 O   0  0  0  0  0  0  0  0  0  0  0  0
    2.4005   -1.9886    2.5017 S   0  0  0  0  0  0  0  0  0  0  0  0
    3.7949   -2.1121    2.8670 O   0  0  0  0  0  0  0  0  0  0  0  0
    1.6789   -0.7690    2.7779 O   0  0  0  0  0  0  0  0  0  0  0  0
    1.5746   -3.2681    3.2397 N   0  0  0  0  0  0  0  0  0  0  0  0
    0.1608   -3.4550    2.7970 C   0  0  0  0  0  0  0  0  0  0  0  0
   -0.7861   -2.4892    3.5120 C   0  0  0  0  0  0  0  0  0  0  0  0
   -0.6757   -2.6384    4.9350 O   0  0  0  0  0  0  0  0  0  0  0  0
    0.6626   -2.3646    5.3778 C   0  0  0  0  0  0  0  0  0  0  0  0
    1.6758   -3.3097    4.7215 C   0  0  0  0  0  0  0  0  0  0  0  0
    3.2700    0.7241   -0.8439 N   0  0  0  0  0  0  0  0  0  0  0  0
    4.4237    0.2537   -1.6342 C   0  0  0  0  0  0  0  0  0  0  0  0
    5.5340    1.2998   -1.7440 C   0  0  0  0  0  0  0  0  0  0  0  0
    5.0639    2.5979   -2.2639 N   0  0  0  0  0  0  0  0  0  0  0  0
    4.6958    2.5147   -3.6965 C   0  0  0  0  0  0  0  0  0  0  0  0
    5.8142    2.0539   -4.6121 C   0  0  0  0  0  0  0  0  0  0  0  0
    6.9834    2.8161   -4.7506 C   0  0  0  0  0  0  0  0  0  0  0  0
    7.9873    2.4268   -5.6411 C   0  0  0  0  0  0  0  0  0  0  0  0
    7.8437    1.2608   -6.3928 C   0  0  0  0  0  0  0  0  0  0  0  0
    6.7018    0.4798   -6.2379 C   0  0  0  0  0  0  0  0  0  0  0  0
    6.5338   -0.9758   -7.1415 Cl  0  0  0  0  0  0  0  0  0  0  0  0
    5.6894    0.8692   -5.3587 C   0  0  0  0  0  0  0  0  0  0  0  0
    3.9076    3.0758   -1.4519 C   0  0  2  0  0  0  0  0  0  0  0  0
    4.3171    3.4956   -0.0270 C   0  0  0  0  0  0  0  0  0  0  0  0
    2.7866    3.6469    0.8668 S   0  0  0  0  0  0  0  0  0  0  0  0
    2.3948    5.0425    0.8688 O   0  0  0  0  0  0  0  0  0  0  0  0
    2.8871    2.8759    2.0855 O   0  0  0  0  0  0  0  0  0  0  0  0
    1.7701    2.7848   -0.3054 C   0  0  0  0  0  0  0  0  0  0  0  0
    2.7368    2.0512   -1.2513 C   0  0  2  0  0  0  0  0  0  0  0  0
    4.0457   -1.5067    0.4144 H   0  0  0  0  0  0  0  0  0  0  0  0
    3.0461   -2.1344   -0.9150 H   0  0  0  0  0  0  0  0  0  0  0  0
   -0.1136   -4.4874    3.0461 H   0  0  0  0  0  0  0  0  0  0  0  0
    0.0724   -3.3638    1.7091 H   0  0  0  0  0  0  0  0  0  0  0  0
   -1.8187   -2.7196    3.2328 H   0  0  0  0  0  0  0  0  0  0  0  0
   -0.6100   -1.4441    3.2394 H   0  0  0  0  0  0  0  0  0  0  0  0
    0.6838   -2.5122    6.4613 H   0  0  0  0  0  0  0  0  0  0  0  0
    0.8994   -1.3125    5.1868 H   0  0  0  0  0  0  0  0  0  0  0  0
    1.4752   -4.3426    5.0260 H   0  0  0  0  0  0  0  0  0  0  0  0
    2.6948   -3.0769    5.0488 H   0  0  0  0  0  0  0  0  0  0  0  0
    4.0383   -0.0251   -2.6226 H   0  0  0  0  0  0  0  0  0  0  0  0
    4.8645   -0.6518   -1.2178 H   0  0  0  0  0  0  0  0  0  0  0  0
    6.3613    0.9020   -2.3416 H   0  0  0  0  0  0  0  0  0  0  0  0
    5.9757    1.4475   -0.7515 H   0  0  0  0  0  0  0  0  0  0  0  0
    4.3952    3.5101   -4.0462 H   0  0  0  0  0  0  0  0  0  0  0  0
    3.8215    1.8704   -3.8488 H   0  0  0  0  0  0  0  0  0  0  0  0
    7.1122    3.7235   -4.1627 H   0  0  0  0  0  0  0  0  0  0  0  0
    8.8804    3.0369   -5.7523 H   0  0  0  0  0  0  0  0  0  0  0  0
    8.6220    0.9692   -7.0930 H   0  0  0  0  0  0  0  0  0  0  0  0
    4.8012    0.2492   -5.2645 H   0  0  0  0  0  0  0  0  0  0  0  0
    3.4980    3.9739   -1.9372 H   0  0  0  0  0  0  0  0  0  0  0  0
    4.8498    4.4477   -0.0033 H   0  0  0  0  0  0  0  0  0  0  0  0
    4.8999    2.7367    0.5016 H   0  0  0  0  0  0  0  0  0  0  0  0
    1.2365    3.5585   -0.8711 H   0  0  0  0  0  0  0  0  0  0  0  0
    1.0259    2.1988    0.2274 H   0  0  0  0  0  0  0  0  0  0  0  0
    2.2119    1.8737   -2.1990 H   0  0  0  0  0  0  0  0  0  0  0  0
  1  2  2  0  0  0  0
  2  3  1  0  0  0  0
  2 14  1  0  0  0  0
  3  4  1  0  0  0  0
  3 33  1  0  0  0  0
  3 34  1  0  0  0  0
  4  5  1  0  0  0  0
  5  6  2  0  0  0  0
  5  7  2  0  0  0  0
  5  8  1  0  0  0  0
  8  9  1  0  0  0  0
  8 13  1  0  0  0  0
  9 10  1  0  0  0  0
  9 35  1  0  0  0  0
  9 36  1  0  0  0  0
 10 11  1  0  0  0  0
 10 37  1  0  0  0  0
 10 38  1  0  0  0  0
 11 12  1  0  0  0  0
 12 13  1  0  0  0  0
 12 39  1  0  0  0  0
 12 40  1  0  0  0  0
 13 41  1  0  0  0  0
 13 42  1  0  0  0  0
 14 15  1  0  0  0  0
 14 32  1  0  0  0  0
 15 16  1  0  0  0  0
 15 43  1  0  0  0  0
 15 44  1  0  0  0  0
 16 17  1  0  0  0  0
 16 45  1  0  0  0  0
 16 46  1  0  0  0  0
 17 18  1  0  0  0  0
 17 26  1  0  0  0  0
 18 19  1  0  0  0  0
 18 47  1  0  0  0  0
 18 48  1  0  0  0  0
 19 20  1  0  0  0  0
 19 25  2  0  0  0  0
 20 21  2  0  0  0  0
 20 49  1  0  0  0  0
 21 22  1  0  0  0  0
 21 50  1  0  0  0  0
 22 23  2  0  0  0  0
 22 51  1  0  0  0  0
 23 24  1  0  0  0  0
 23 25  1  0  0  0  0
 25 52  1  0  0  0  0
 26 27  1  0  0  0  0
 26 32  1  0  0  0  0
 26 53  1  6  0  0  0
 27 28  1  0  0  0  0
 27 54  1  0  0  0  0
 27 55  1  0  0  0  0
 28 29  2  0  0  0  0
 28 30  2  0  0  0  0
 28 31  1  0  0  0  0
 31 32  1  0  0  0  0
 31 56  1  0  0  0  0
 31 57  1  0  0  0  0
 32 58  1  6  0  0  0
M  END
$$$$
