
 OpenBabel07202414153D

 44 47  0  0  0  0  0  0  0  0999 V2000
    2.7071   -2.9718   -4.8256 C   0  0  0  0  0  0  0  0  0  0  0  0
    3.5638   -2.5382   -3.7712 O   0  0  0  0  0  0  0  0  0  0  0  0
    4.2265   -1.3591   -3.9786 C   0  0  0  0  0  0  0  0  0  0  0  0
    4.5585   -0.9046   -5.2663 C   0  0  0  0  0  0  0  0  0  0  0  0
    5.2404    0.3001   -5.4559 C   0  0  0  0  0  0  0  0  0  0  0  0
    5.6220    1.0584   -4.3586 C   0  0  0  0  0  0  0  0  0  0  0  0
    5.3126    0.6114   -3.0772 C   0  0  0  0  0  0  0  0  0  0  0  0
    4.6153   -0.5899   -2.8730 C   0  0  0  0  0  0  0  0  0  0  0  0
    4.3531   -0.8001   -1.5438 O   0  0  0  0  0  0  0  0  0  0  0  0
    3.9010   -2.0752   -1.0411 C   0  0  0  0  0  0  0  0  0  0  0  0
    2.4051   -2.4290   -1.1782 C   0  0  0  0  0  0  0  0  0  0  0  0
    2.3756   -2.6551    0.2421 N   0  0  0  0  0  0  0  0  0  0  0  0
    3.6787   -2.0643    0.4870 C   0  0  0  0  0  0  0  0  0  0  0  0
    1.4814   -3.0621    1.1794 C   0  0  0  0  0  0  0  0  0  0  0  0
    1.7505   -2.8982    2.3746 O   0  0  0  0  0  0  0  0  0  0  0  0
    0.2691   -3.8618    0.7785 C   0  0  0  0  0  0  0  0  0  0  0  0
   -0.1274   -4.6254    1.8175 C   0  0  0  0  0  0  0  0  0  0  0  0
   -0.1521   -6.0917    1.6025 C   0  0  0  0  0  0  0  0  0  0  0  0
   -0.1786   -6.8605    2.5534 O   0  0  0  0  0  0  0  0  0  0  0  0
   -0.0688   -6.5437    0.3178 N   0  0  0  0  0  0  0  0  0  0  0  0
   -0.2225   -5.6943   -0.7774 C   0  0  0  0  0  0  0  0  0  0  0  0
   -0.1328   -4.3054   -0.5595 C   0  0  0  0  0  0  0  0  0  0  0  0
   -0.5727   -3.4584   -1.5851 C   0  0  0  0  0  0  0  0  0  0  0  0
   -0.9966   -3.9923   -2.8101 C   0  0  0  0  0  0  0  0  0  0  0  0
   -0.9663   -5.3701   -3.0346 C   0  0  0  0  0  0  0  0  0  0  0  0
   -0.5664   -6.2258   -2.0179 C   0  0  0  0  0  0  0  0  0  0  0  0
    2.1176   -3.8158   -4.4549 H   0  0  0  0  0  0  0  0  0  0  0  0
    3.2828   -3.3301   -5.6843 H   0  0  0  0  0  0  0  0  0  0  0  0
    2.0098   -2.1793   -5.1192 H   0  0  0  0  0  0  0  0  0  0  0  0
    4.3044   -1.4748   -6.1538 H   0  0  0  0  0  0  0  0  0  0  0  0
    5.4746    0.6397   -6.4614 H   0  0  0  0  0  0  0  0  0  0  0  0
    6.1560    1.9951   -4.4952 H   0  0  0  0  0  0  0  0  0  0  0  0
    5.6108    1.2081   -2.2175 H   0  0  0  0  0  0  0  0  0  0  0  0
    4.5751   -2.8927   -1.3347 H   0  0  0  0  0  0  0  0  0  0  0  0
    2.2140   -3.3248   -1.7719 H   0  0  0  0  0  0  0  0  0  0  0  0
    1.7602   -1.5984   -1.4842 H   0  0  0  0  0  0  0  0  0  0  0  0
    4.3566   -2.7051    1.0592 H   0  0  0  0  0  0  0  0  0  0  0  0
    3.6114   -1.0768    0.9540 H   0  0  0  0  0  0  0  0  0  0  0  0
    0.0511   -4.3687    2.8575 H   0  0  0  0  0  0  0  0  0  0  0  0
   -0.0648   -7.5523    0.2048 H   0  0  0  0  0  0  0  0  0  0  0  0
   -0.6311   -2.3850   -1.4257 H   0  0  0  0  0  0  0  0  0  0  0  0
   -1.3735   -3.3330   -3.5898 H   0  0  0  0  0  0  0  0  0  0  0  0
   -1.3105   -5.7805   -3.9803 H   0  0  0  0  0  0  0  0  0  0  0  0
   -0.6062   -7.3048   -2.1689 H   0  0  0  0  0  0  0  0  0  0  0  0
  1  2  1  0  0  0  0
  1 27  1  0  0  0  0
  1 28  1  0  0  0  0
  1 29  1  0  0  0  0
  2  3  1  0  0  0  0
  3  4  1  0  0  0  0
  3  8  2  0  0  0  0
  4  5  2  0  0  0  0
  4 30  1  0  0  0  0
  5  6  1  0  0  0  0
  5 31  1  0  0  0  0
  6  7  2  0  0  0  0
  6 32  1  0  0  0  0
  7  8  1  0  0  0  0
  7 33  1  0  0  0  0
  8  9  1  0  0  0  0
  9 10  1  0  0  0  0
 10 11  1  0  0  0  0
 10 13  1  0  0  0  0
 10 34  1  0  0  0  0
 11 12  1  0  0  0  0
 11 35  1  0  0  0  0
 11 36  1  0  0  0  0
 12 13  1  0  0  0  0
 12 14  1  0  0  0  0
 13 37  1  0  0  0  0
 13 38  1  0  0  0  0
 14 15  2  0  0  0  0
 14 16  1  0  0  0  0
 16 17  2  0  0  0  0
 16 22  1  0  0  0  0
 17 18  1  0  0  0  0
 17 39  1  0  0  0  0
 18 19  2  0  0  0  0
 18 20  1  0  0  0  0
 20 21  1  0  0  0  0
 20 40  1  0  0  0  0
 21 22  1  0  0  0  0
 21 26  2  0  0  0  0
 22 23  2  0  0  0  0
 23 24  1  0  0  0  0
 23 41  1  0  0  0  0
 24 25  2  0  0  0  0
 24 42  1  0  0  0  0
 25 26  1  0  0  0  0
 25 43  1  0  0  0  0
 26 44  1  0  0  0  0
M  END
$$$$
