
 OpenBabel07202414133D

 68 72  0  0  1  0  0  0  0  0999 V2000
    1.4952    0.6622   -0.1344 C   0  0  0  0  0  0  0  0  0  0  0  0
    2.4234    0.5609    1.0835 C   0  0  3  0  0  0  0  0  0  0  0  0
    2.3173    1.8306    1.9745 C   0  0  0  0  0  0  0  0  0  0  0  0
    2.8498    3.0536    1.3061 N   0  0  0  0  0  0  0  0  0  0  0  0
    2.7216    4.2074    2.2343 C   0  0  0  0  0  0  0  0  0  0  0  0
    3.1439    5.5526    1.6209 C   0  0  0  0  0  0  0  0  0  0  0  0
    2.4255    5.8045    0.4167 O   0  0  0  0  0  0  0  0  0  0  0  0
    4.2600    2.8121    0.9000 C   0  0  0  0  0  0  0  0  0  0  0  0
    4.4125    1.5448    0.0305 C   0  0  0  0  0  0  0  0  0  0  0  0
    3.8382    0.3686    0.7017 N   0  0  0  0  0  0  0  0  0  0  0  0
    4.7236   -0.4854    1.3758 C   0  0  0  0  0  0  0  0  0  0  0  0
    5.9362   -0.3140    1.3203 O   0  0  0  0  0  0  0  0  0  0  0  0
    4.1183   -1.7032    2.1046 C   0  0  0  0  0  0  0  0  0  0  0  0
    5.1425   -2.6604    2.8049 C   0  0  3  0  0  0  0  0  0  0  0  0
    5.8371   -1.8802    3.9820 C   0  0  0  0  0  0  0  0  0  0  0  0
    5.5468   -0.7139    4.2448 O   0  0  0  0  0  0  0  0  0  0  0  0
    6.6757   -2.6691    4.7604 N   0  0  0  0  0  0  0  0  0  0  0  0
    7.4610   -2.2851    5.8786 C   0  0  0  0  0  0  0  0  0  0  0  0
    7.5984   -0.9626    6.2975 C   0  0  0  0  0  0  0  0  0  0  0  0
    8.5265   -0.5369    7.1889 N   0  0  0  0  0  0  0  0  0  0  0  0
    9.3242   -1.4809    7.7283 C   0  0  0  0  0  0  0  0  0  0  0  0
    9.1770   -2.8501    7.5179 C   0  0  0  0  0  0  0  0  0  0  0  0
    9.9516   -3.7837    8.2322 C   0  0  0  0  0  0  0  0  0  0  0  0
    9.7587   -5.1514    8.0559 C   0  0  0  0  0  0  0  0  0  0  0  0
    8.8073   -5.5982    7.1493 C   0  0  0  0  0  0  0  0  0  0  0  0
    8.0502   -4.6781    6.4168 C   0  0  0  0  0  0  0  0  0  0  0  0
    8.2116   -3.2766    6.5756 C   0  0  0  0  0  0  0  0  0  0  0  0
    6.1832   -3.2207    1.7966 C   0  0  0  0  0  0  0  0  0  0  0  0
    5.5530   -4.3103    0.9430 C   0  0  0  0  0  0  0  0  0  0  0  0
    5.2599   -5.4536    1.7386 O   0  0  0  0  0  0  0  0  0  0  0  0
    4.5475   -5.1733    2.8707 C   0  0  0  0  0  0  0  0  0  0  0  0
    4.0200   -6.2979    3.5122 C   0  0  0  0  0  0  0  0  0  0  0  0
    3.3304   -6.1605    4.7160 C   0  0  0  0  0  0  0  0  0  0  0  0
    3.1600   -4.8928    5.2611 C   0  0  0  0  0  0  0  0  0  0  0  0
    2.3677   -4.7227    6.7783 Cl  0  0  0  0  0  0  0  0  0  0  0  0
    3.6671   -3.7618    4.6118 C   0  0  0  0  0  0  0  0  0  0  0  0
    4.3998   -3.8845    3.4137 C   0  0  0  0  0  0  0  0  0  0  0  0
    0.4491    0.6769    0.1891 H   0  0  0  0  0  0  0  0  0  0  0  0
    1.6304   -0.1950   -0.8036 H   0  0  0  0  0  0  0  0  0  0  0  0
    1.6628    1.5702   -0.7229 H   0  0  0  0  0  0  0  0  0  0  0  0
    2.0811   -0.2959    1.6686 H   0  0  0  0  0  0  0  0  0  0  0  0
    2.8687    1.6485    2.9066 H   0  0  0  0  0  0  0  0  0  0  0  0
    1.2636    1.9837    2.2408 H   0  0  0  0  0  0  0  0  0  0  0  0
    3.2950    4.0331    3.1548 H   0  0  0  0  0  0  0  0  0  0  0  0
    1.6671    4.2960    2.5088 H   0  0  0  0  0  0  0  0  0  0  0  0
    4.2145    5.5840    1.3982 H   0  0  0  0  0  0  0  0  0  0  0  0
    2.9273    6.3650    2.3214 H   0  0  0  0  0  0  0  0  0  0  0  0
    2.4152    4.9532   -0.0611 H   0  0  0  0  0  0  0  0  0  0  0  0
    4.8914    2.7128    1.7906 H   0  0  0  0  0  0  0  0  0  0  0  0
    4.6356    3.6587    0.3155 H   0  0  0  0  0  0  0  0  0  0  0  0
    5.4695    1.3888   -0.2163 H   0  0  0  0  0  0  0  0  0  0  0  0
    3.8915    1.6780   -0.9239 H   0  0  0  0  0  0  0  0  0  0  0  0
    3.5270   -2.2580    1.3655 H   0  0  0  0  0  0  0  0  0  0  0  0
    3.4274   -1.3236    2.8646 H   0  0  0  0  0  0  0  0  0  0  0  0
    6.7556   -3.6360    4.4798 H   0  0  0  0  0  0  0  0  0  0  0  0
    6.9736   -0.1610    5.9186 H   0  0  0  0  0  0  0  0  0  0  0  0
   10.1081   -1.0902    8.3730 H   0  0  0  0  0  0  0  0  0  0  0  0
   10.6906   -3.4482    8.9579 H   0  0  0  0  0  0  0  0  0  0  0  0
   10.3369   -5.8650    8.6375 H   0  0  0  0  0  0  0  0  0  0  0  0
    8.6398   -6.6646    7.0182 H   0  0  0  0  0  0  0  0  0  0  0  0
    7.2927   -5.0861    5.7534 H   0  0  0  0  0  0  0  0  0  0  0  0
    7.0415   -3.6522    2.3272 H   0  0  0  0  0  0  0  0  0  0  0  0
    6.5992   -2.4563    1.1395 H   0  0  0  0  0  0  0  0  0  0  0  0
    6.2547   -4.6309    0.1656 H   0  0  0  0  0  0  0  0  0  0  0  0
    4.6409   -3.9840    0.4299 H   0  0  0  0  0  0  0  0  0  0  0  0
    4.1646   -7.2860    3.0837 H   0  0  0  0  0  0  0  0  0  0  0  0
    2.9452   -7.0420    5.2225 H   0  0  0  0  0  0  0  0  0  0  0  0
    3.5400   -2.7892    5.0855 H   0  0  0  0  0  0  0  0  0  0  0  0
  1  2  1  0  0  0  0
  1 38  1  0  0  0  0
  1 39  1  0  0  0  0
  1 40  1  0  0  0  0
  2  3  1  0  0  0  0
  2 10  1  0  0  0  0
  2 41  1  0  0  0  0
  3  4  1  0  0  0  0
  3 42  1  0  0  0  0
  3 43  1  0  0  0  0
  4  5  1  0  0  0  0
  4  8  1  0  0  0  0
  5  6  1  0  0  0  0
  5 44  1  0  0  0  0
  5 45  1  0  0  0  0
  6  7  1  0  0  0  0
  6 46  1  0  0  0  0
  6 47  1  0  0  0  0
  7 48  1  0  0  0  0
  8  9  1  0  0  0  0
  8 49  1  0  0  0  0
  8 50  1  0  0  0  0
  9 10  1  0  0  0  0
  9 51  1  0  0  0  0
  9 52  1  0  0  0  0
 10 11  1  0  0  0  0
 11 12  2  0  0  0  0
 11 13  1  0  0  0  0
 13 14  1  0  0  0  0
 13 53  1  0  0  0  0
 13 54  1  0  0  0  0
 14 15  1  0  0  0  0
 14 28  1  0  0  0  0
 14 37  1  0  0  0  0
 15 16  2  0  0  0  0
 15 17  1  0  0  0  0
 17 18  1  0  0  0  0
 17 55  1  0  0  0  0
 18 19  1  0  0  0  0
 18 27  2  0  0  0  0
 19 20  2  0  0  0  0
 19 56  1  0  0  0  0
 20 21  1  0  0  0  0
 21 22  2  0  0  0  0
 21 57  1  0  0  0  0
 22 23  1  0  0  0  0
 22 27  1  0  0  0  0
 23 24  2  0  0  0  0
 23 58  1  0  0  0  0
 24 25  1  0  0  0  0
 24 59  1  0  0  0  0
 25 26  2  0  0  0  0
 25 60  1  0  0  0  0
 26 27  1  0  0  0  0
 26 61  1  0  0  0  0
 28 29  1  0  0  0  0
 28 62  1  0  0  0  0
 28 63  1  0  0  0  0
 29 30  1  0  0  0  0
 29 64  1  0  0  0  0
 29 65  1  0  0  0  0
 30 31  1  0  0  0  0
 31 32  1  0  0  0  0
 31 37  2  0  0  0  0
 32 33  2  0  0  0  0
 32 66  1  0  0  0  0
 33 34  1  0  0  0  0
 33 67  1  0  0  0  0
 34 35  1  0  0  0  0
 34 36  2  0  0  0  0
 36 37  1  0  0  0  0
 36 68  1  0  0  0  0
M  END
$$$$
