
 OpenBabel07202414153D

 50 53  0  0  0  0  0  0  0  0999 V2000
    0.5677   -0.6405    0.1819 C   0  0  0  0  0  0  0  0  0  0  0  0
    1.4544    0.0227   -0.7103 O   0  0  0  0  0  0  0  0  0  0  0  0
    2.3428   -0.7654   -1.3918 C   0  0  0  0  0  0  0  0  0  0  0  0
    2.2078   -2.1339   -1.6290 C   0  0  0  0  0  0  0  0  0  0  0  0
    3.1676   -2.8161   -2.3934 C   0  0  0  0  0  0  0  0  0  0  0  0
    4.2678   -2.1332   -2.9228 C   0  0  0  0  0  0  0  0  0  0  0  0
    4.3981   -0.7613   -2.6900 C   0  0  0  0  0  0  0  0  0  0  0  0
    3.4392   -0.0857   -1.9270 C   0  0  0  0  0  0  0  0  0  0  0  0
    5.1221   -2.7738   -3.8545 N   0  0  0  0  0  0  0  0  0  0  0  0
    6.2678   -3.5558   -3.4103 C   0  0  0  0  0  0  0  0  0  0  0  0
    6.6361   -3.6920   -1.9548 C   0  0  0  0  0  0  0  0  0  0  0  0
    6.1814   -4.7892   -1.2074 C   0  0  0  0  0  0  0  0  0  0  0  0
    6.7454   -5.0811    0.0360 C   0  0  0  0  0  0  0  0  0  0  0  0
    7.7540   -4.2707    0.5541 C   0  0  0  0  0  0  0  0  0  0  0  0
    8.1682   -3.1413   -0.1492 C   0  0  0  0  0  0  0  0  0  0  0  0
    7.6049   -2.8451   -1.3920 C   0  0  0  0  0  0  0  0  0  0  0  0
    4.8312   -2.6122   -5.2234 C   0  0  0  0  0  0  0  0  0  0  0  0
    3.8557   -1.9701   -5.6261 O   0  0  0  0  0  0  0  0  0  0  0  0
    5.7331   -3.3028   -6.2499 C   0  0  0  0  0  0  0  0  0  0  0  0
    7.0396   -2.6105   -6.5093 C   0  0  0  0  0  0  0  0  0  0  0  0
    8.2365   -3.2498   -6.7851 C   0  0  0  0  0  0  0  0  0  0  0  0
    9.2260   -2.3076   -6.8549 N   0  0  0  0  0  0  0  0  0  0  0  0
    8.7018   -1.0551   -6.6469 C   0  0  0  0  0  0  0  0  0  0  0  0
    7.3185   -1.2029   -6.5257 C   0  0  0  0  0  0  0  0  0  0  0  0
    6.5357   -0.0346   -6.4128 C   0  0  0  0  0  0  0  0  0  0  0  0
    7.1607    1.2168   -6.3555 C   0  0  0  0  0  0  0  0  0  0  0  0
    8.5475    1.3207   -6.4043 C   0  0  0  0  0  0  0  0  0  0  0  0
    9.3456    0.1859   -6.5668 C   0  0  0  0  0  0  0  0  0  0  0  0
   -0.0150    0.1266    0.7036 H   0  0  0  0  0  0  0  0  0  0  0  0
    1.1248   -1.2055    0.9360 H   0  0  0  0  0  0  0  0  0  0  0  0
   -0.1399   -1.2818   -0.3521 H   0  0  0  0  0  0  0  0  0  0  0  0
    1.3441   -2.6877   -1.2770 H   0  0  0  0  0  0  0  0  0  0  0  0
    3.0155   -3.8666   -2.6209 H   0  0  0  0  0  0  0  0  0  0  0  0
    5.2200   -0.2045   -3.1292 H   0  0  0  0  0  0  0  0  0  0  0  0
    3.5353    0.9858   -1.7685 H   0  0  0  0  0  0  0  0  0  0  0  0
    7.1504   -3.1552   -3.9212 H   0  0  0  0  0  0  0  0  0  0  0  0
    6.1383   -4.5701   -3.8125 H   0  0  0  0  0  0  0  0  0  0  0  0
    5.4295   -5.4590   -1.6177 H   0  0  0  0  0  0  0  0  0  0  0  0
    6.4235   -5.9621    0.5853 H   0  0  0  0  0  0  0  0  0  0  0  0
    8.2237   -4.5244    1.5009 H   0  0  0  0  0  0  0  0  0  0  0  0
    8.9561   -2.5100    0.2541 H   0  0  0  0  0  0  0  0  0  0  0  0
    7.9726   -1.9854   -1.9490 H   0  0  0  0  0  0  0  0  0  0  0  0
    5.1769   -3.3780   -7.1923 H   0  0  0  0  0  0  0  0  0  0  0  0
    5.9079   -4.3386   -5.9353 H   0  0  0  0  0  0  0  0  0  0  0  0
    8.4714   -4.2978   -6.9169 H   0  0  0  0  0  0  0  0  0  0  0  0
   10.2037   -2.4964   -7.0288 H   0  0  0  0  0  0  0  0  0  0  0  0
    5.4510   -0.0909   -6.3718 H   0  0  0  0  0  0  0  0  0  0  0  0
    6.5520    2.1130   -6.2636 H   0  0  0  0  0  0  0  0  0  0  0  0
    9.0157    2.2991   -6.3277 H   0  0  0  0  0  0  0  0  0  0  0  0
   10.4259    0.2707   -6.6232 H   0  0  0  0  0  0  0  0  0  0  0  0
  1  2  1  0  0  0  0
  1 29  1  0  0  0  0
  1 30  1  0  0  0  0
  1 31  1  0  0  0  0
  2  3  1  0  0  0  0
  3  4  1  0  0  0  0
  3  8  2  0  0  0  0
  4  5  2  0  0  0  0
  4 32  1  0  0  0  0
  5  6  1  0  0  0  0
  5 33  1  0  0  0  0
  6  7  2  0  0  0  0
  6  9  1  0  0  0  0
  7  8  1  0  0  0  0
  7 34  1  0  0  0  0
  8 35  1  0  0  0  0
  9 10  1  0  0  0  0
  9 17  1  0  0  0  0
 10 11  1  0  0  0  0
 10 36  1  0  0  0  0
 10 37  1  0  0  0  0
 11 12  1  0  0  0  0
 11 16  2  0  0  0  0
 12 13  2  0  0  0  0
 12 38  1  0  0  0  0
 13 14  1  0  0  0  0
 13 39  1  0  0  0  0
 14 15  2  0  0  0  0
 14 40  1  0  0  0  0
 15 16  1  0  0  0  0
 15 41  1  0  0  0  0
 16 42  1  0  0  0  0
 17 18  2  0  0  0  0
 17 19  1  0  0  0  0
 19 20  1  0  0  0  0
 19 43  1  0  0  0  0
 19 44  1  0  0  0  0
 20 21  2  0  0  0  0
 20 24  1  0  0  0  0
 21 22  1  0  0  0  0
 21 45  1  0  0  0  0
 22 23  1  0  0  0  0
 22 46  1  0  0  0  0
 23 24  1  0  0  0  0
 23 28  2  0  0  0  0
 24 25  2  0  0  0  0
 25 26  1  0  0  0  0
 25 47  1  0  0  0  0
 26 27  2  0  0  0  0
 26 48  1  0  0  0  0
 27 28  1  0  0  0  0
 27 49  1  0  0  0  0
 28 50  1  0  0  0  0
M  END
$$$$
