
 OpenBabel07202414153D

 43 45  0  0  0  0  0  0  0  0999 V2000
    1.0136    0.4606   -0.0805 C   0  0  0  0  0  0  0  0  0  0  0  0
    2.3553    0.0215    0.1018 O   0  0  0  0  0  0  0  0  0  0  0  0
    3.2635    0.3714   -0.8608 C   0  0  0  0  0  0  0  0  0  0  0  0
    3.1319    1.5609   -1.6016 C   0  0  0  0  0  0  0  0  0  0  0  0
    4.1031    1.9451   -2.5280 C   0  0  0  0  0  0  0  0  0  0  0  0
    5.2234    1.1471   -2.7381 C   0  0  0  0  0  0  0  0  0  0  0  0
    5.3710   -0.0289   -1.9950 C   0  0  0  0  0  0  0  0  0  0  0  0
    4.3967   -0.4406   -1.0657 C   0  0  0  0  0  0  0  0  0  0  0  0
    4.7187   -1.6305   -0.4467 O   0  0  0  0  0  0  0  0  0  0  0  0
    3.7257   -2.2611    0.3689 C   0  0  0  0  0  0  0  0  0  0  0  0
    4.2022   -3.6632    0.7993 C   0  0  0  0  0  0  0  0  0  0  0  0
    3.2671   -4.3491    1.6907 N   0  0  0  0  0  0  0  0  0  0  0  0
    2.0271   -4.7309    1.2344 C   0  0  0  0  0  0  0  0  0  0  0  0
    1.7624   -4.7449    0.0335 O   0  0  0  0  0  0  0  0  0  0  0  0
    0.9601   -4.9390    2.2826 C   0  0  0  0  0  0  0  0  0  0  0  0
   -0.2571   -4.7591    1.7324 C   0  0  0  0  0  0  0  0  0  0  0  0
   -1.0362   -3.5946    2.2345 C   0  0  0  0  0  0  0  0  0  0  0  0
   -1.9477   -3.1208    1.5673 O   0  0  0  0  0  0  0  0  0  0  0  0
   -0.6307   -3.0167    3.4074 N   0  0  0  0  0  0  0  0  0  0  0  0
    0.3431   -3.5863    4.2310 C   0  0  0  0  0  0  0  0  0  0  0  0
    1.1108   -4.6394    3.7181 C   0  0  0  0  0  0  0  0  0  0  0  0
    1.9086   -5.3798    4.5956 C   0  0  0  0  0  0  0  0  0  0  0  0
    1.9819   -5.0140    5.9461 C   0  0  0  0  0  0  0  0  0  0  0  0
    1.2886   -3.8924    6.4134 C   0  0  0  0  0  0  0  0  0  0  0  0
    0.4696   -3.1657    5.5524 C   0  0  0  0  0  0  0  0  0  0  0  0
    0.3880   -0.0835    0.6350 H   0  0  0  0  0  0  0  0  0  0  0  0
    0.6461    0.2352   -1.0868 H   0  0  0  0  0  0  0  0  0  0  0  0
    0.9191    1.5266    0.1476 H   0  0  0  0  0  0  0  0  0  0  0  0
    2.2868    2.2275   -1.4510 H   0  0  0  0  0  0  0  0  0  0  0  0
    3.9801    2.8747   -3.0827 H   0  0  0  0  0  0  0  0  0  0  0  0
    5.9894    1.4489   -3.4492 H   0  0  0  0  0  0  0  0  0  0  0  0
    6.2433   -0.6545   -2.1642 H   0  0  0  0  0  0  0  0  0  0  0  0
    2.7891   -2.3588   -0.1916 H   0  0  0  0  0  0  0  0  0  0  0  0
    3.5661   -1.6644    1.2749 H   0  0  0  0  0  0  0  0  0  0  0  0
    5.1587   -3.5868    1.3270 H   0  0  0  0  0  0  0  0  0  0  0  0
    4.3697   -4.2852   -0.0867 H   0  0  0  0  0  0  0  0  0  0  0  0
    3.4609   -4.3386    2.6816 H   0  0  0  0  0  0  0  0  0  0  0  0
   -0.4773   -4.9694    0.6905 H   0  0  0  0  0  0  0  0  0  0  0  0
   -1.1635   -2.2140    3.7114 H   0  0  0  0  0  0  0  0  0  0  0  0
    2.4399   -6.2669    4.2572 H   0  0  0  0  0  0  0  0  0  0  0  0
    2.5708   -5.6083    6.6429 H   0  0  0  0  0  0  0  0  0  0  0  0
    1.3577   -3.6074    7.4612 H   0  0  0  0  0  0  0  0  0  0  0  0
   -0.1047   -2.3258    5.9302 H   0  0  0  0  0  0  0  0  0  0  0  0
  1  2  1  0  0  0  0
  1 26  1  0  0  0  0
  1 27  1  0  0  0  0
  1 28  1  0  0  0  0
  2  3  1  0  0  0  0
  3  4  1  0  0  0  0
  3  8  2  0  0  0  0
  4  5  2  0  0  0  0
  4 29  1  0  0  0  0
  5  6  1  0  0  0  0
  5 30  1  0  0  0  0
  6  7  2  0  0  0  0
  6 31  1  0  0  0  0
  7  8  1  0  0  0  0
  7 32  1  0  0  0  0
  8  9  1  0  0  0  0
  9 10  1  0  0  0  0
 10 11  1  0  0  0  0
 10 33  1  0  0  0  0
 10 34  1  0  0  0  0
 11 12  1  0  0  0  0
 11 35  1  0  0  0  0
 11 36  1  0  0  0  0
 12 13  1  0  0  0  0
 12 37  1  0  0  0  0
 13 14  2  0  0  0  0
 13 15  1  0  0  0  0
 15 16  2  0  0  0  0
 15 21  1  0  0  0  0
 16 17  1  0  0  0  0
 16 38  1  0  0  0  0
 17 18  2  0  0  0  0
 17 19  1  0  0  0  0
 19 20  1  0  0  0  0
 19 39  1  0  0  0  0
 20 21  1  0  0  0  0
 20 25  2  0  0  0  0
 21 22  2  0  0  0  0
 22 23  1  0  0  0  0
 22 40  1  0  0  0  0
 23 24  2  0  0  0  0
 23 41  1  0  0  0  0
 24 25  1  0  0  0  0
 24 42  1  0  0  0  0
 25 43  1  0  0  0  0
M  END
$$$$
