
 OpenBabel07202414133D

 51 54  0  0  0  0  0  0  0  0999 V2000
    7.6744   -0.6632   -3.8518 C   0  0  0  0  0  0  0  0  0  0  0  0
    8.0516    0.3238   -2.7517 C   0  0  0  0  0  0  0  0  0  0  0  0
    6.9366    0.6585   -1.7272 C   0  0  0  0  0  0  0  0  0  0  0  0
    6.8046   -0.0485   -0.3799 C   0  0  0  0  0  0  0  0  0  0  0  0
    7.2266   -1.3770   -0.1642 C   0  0  0  0  0  0  0  0  0  0  0  0
    6.9665   -1.9754    1.0632 C   0  0  0  0  0  0  0  0  0  0  0  0
    6.4514   -1.2741    2.1249 C   0  0  0  0  0  0  0  0  0  0  0  0
    6.1049    0.0386    2.0095 C   0  0  0  0  0  0  0  0  0  0  0  0
    6.1408    0.5866    0.7180 C   0  0  0  0  0  0  0  0  0  0  0  0
    4.8535    1.8187    0.5024 S   0  0  0  0  0  0  0  0  0  0  0  0
    4.9971    2.7835    1.5720 O   0  0  0  0  0  0  0  0  0  0  0  0
    4.7829    2.2317   -0.8832 O   0  0  0  0  0  0  0  0  0  0  0  0
    3.4940    0.8504    0.7917 N   0  0  0  0  0  0  0  0  0  0  0  0
    2.7898    0.8287    2.0867 C   0  0  0  0  0  0  0  0  0  0  0  0
    2.7966   -0.5321    2.8117 C   0  0  0  0  0  0  0  0  0  0  0  0
    2.5534   -1.6951    1.9344 N   0  0  0  0  0  0  0  0  0  0  0  0
    3.1882   -1.6656    0.6019 C   0  0  0  0  0  0  0  0  0  0  0  0
    3.1964   -0.2928   -0.0987 C   0  0  0  0  0  0  0  0  0  0  0  0
    2.2613   -2.9437    2.5157 C   0  0  0  0  0  0  0  0  0  0  0  0
    1.7252   -3.0648    3.8120 C   0  0  0  0  0  0  0  0  0  0  0  0
    1.2296   -4.2799    4.3127 C   0  0  0  0  0  0  0  0  0  0  0  0
    1.2839   -5.4305    3.5404 C   0  0  0  0  0  0  0  0  0  0  0  0
    1.8945   -5.3751    2.2976 C   0  0  0  0  0  0  0  0  0  0  0  0
    2.3846   -4.1553    1.8055 C   0  0  0  0  0  0  0  0  0  0  0  0
    6.1451   -2.0495    3.1960 O   0  0  0  0  0  0  0  0  0  0  0  0
    6.4137   -3.3549    2.6573 C   0  0  0  0  0  0  0  0  0  0  0  0
    7.0639   -3.3074    1.3598 O   0  0  0  0  0  0  0  0  0  0  0  0
    8.5011   -0.7434   -4.5695 H   0  0  0  0  0  0  0  0  0  0  0  0
    6.8006   -0.3199   -4.4173 H   0  0  0  0  0  0  0  0  0  0  0  0
    7.4711   -1.6623   -3.4614 H   0  0  0  0  0  0  0  0  0  0  0  0
    8.2762    1.2625   -3.2812 H   0  0  0  0  0  0  0  0  0  0  0  0
    8.9791    0.0171   -2.2616 H   0  0  0  0  0  0  0  0  0  0  0  0
    5.9753    0.6091   -2.2444 H   0  0  0  0  0  0  0  0  0  0  0  0
    7.1392    1.7064   -1.4712 H   0  0  0  0  0  0  0  0  0  0  0  0
    7.6526   -1.9693   -0.9658 H   0  0  0  0  0  0  0  0  0  0  0  0
    5.6112    0.5490    2.8320 H   0  0  0  0  0  0  0  0  0  0  0  0
    1.7497    1.1138    1.8862 H   0  0  0  0  0  0  0  0  0  0  0  0
    3.1837    1.5896    2.7664 H   0  0  0  0  0  0  0  0  0  0  0  0
    2.0043   -0.4456    3.5628 H   0  0  0  0  0  0  0  0  0  0  0  0
    3.7314   -0.6713    3.3625 H   0  0  0  0  0  0  0  0  0  0  0  0
    2.6453   -2.3278   -0.0829 H   0  0  0  0  0  0  0  0  0  0  0  0
    4.2050   -2.0580    0.6754 H   0  0  0  0  0  0  0  0  0  0  0  0
    2.2231   -0.1126   -0.5665 H   0  0  0  0  0  0  0  0  0  0  0  0
    3.9197   -0.3449   -0.9208 H   0  0  0  0  0  0  0  0  0  0  0  0
    1.6337   -2.2097    4.4722 H   0  0  0  0  0  0  0  0  0  0  0  0
    0.7728   -4.3105    5.2987 H   0  0  0  0  0  0  0  0  0  0  0  0
    0.8552   -6.3601    3.9035 H   0  0  0  0  0  0  0  0  0  0  0  0
    1.9695   -6.2725    1.6882 H   0  0  0  0  0  0  0  0  0  0  0  0
    2.8514   -4.1927    0.8266 H   0  0  0  0  0  0  0  0  0  0  0  0
    5.4673   -3.9062    2.5650 H   0  0  0  0  0  0  0  0  0  0  0  0
    7.0577   -3.8854    3.3647 H   0  0  0  0  0  0  0  0  0  0  0  0
  1  2  1  0  0  0  0
  1 28  1  0  0  0  0
  1 29  1  0  0  0  0
  1 30  1  0  0  0  0
  2  3  1  0  0  0  0
  2 31  1  0  0  0  0
  2 32  1  0  0  0  0
  3  4  1  0  0  0  0
  3 33  1  0  0  0  0
  3 34  1  0  0  0  0
  4  5  1  0  0  0  0
  4  9  2  0  0  0  0
  5  6  2  0  0  0  0
  5 35  1  0  0  0  0
  6  7  1  0  0  0  0
  6 27  1  0  0  0  0
  7  8  2  0  0  0  0
  7 25  1  0  0  0  0
  8  9  1  0  0  0  0
  8 36  1  0  0  0  0
  9 10  1  0  0  0  0
 10 11  2  0  0  0  0
 10 12  2  0  0  0  0
 10 13  1  0  0  0  0
 13 14  1  0  0  0  0
 13 18  1  0  0  0  0
 14 15  1  0  0  0  0
 14 37  1  0  0  0  0
 14 38  1  0  0  0  0
 15 16  1  0  0  0  0
 15 39  1  0  0  0  0
 15 40  1  0  0  0  0
 16 17  1  0  0  0  0
 16 19  1  0  0  0  0
 17 18  1  0  0  0  0
 17 41  1  0  0  0  0
 17 42  1  0  0  0  0
 18 43  1  0  0  0  0
 18 44  1  0  0  0  0
 19 20  1  0  0  0  0
 19 24  2  0  0  0  0
 20 21  2  0  0  0  0
 20 45  1  0  0  0  0
 21 22  1  0  0  0  0
 21 46  1  0  0  0  0
 22 23  2  0  0  0  0
 22 47  1  0  0  0  0
 23 24  1  0  0  0  0
 23 48  1  0  0  0  0
 24 49  1  0  0  0  0
 25 26  1  0  0  0  0
 26 27  1  0  0  0  0
 26 50  1  0  0  0  0
 26 51  1  0  0  0  0
M  END
$$$$
