
 OpenBabel07202414173D

 56 60  0  0  1  0  0  0  0  0999 V2000
    0.9317   -0.1149    0.0851 Cl  0  0  0  0  0  0  0  0  0  0  0  0
    2.6471   -0.1159    0.1922 C   0  0  0  0  0  0  0  0  0  0  0  0
    3.3446    1.0781    0.0309 C   0  0  0  0  0  0  0  0  0  0  0  0
    4.7354    1.0743    0.0857 C   0  0  0  0  0  0  0  0  0  0  0  0
    5.4385   -0.1225    0.3050 C   0  0  0  0  0  0  0  0  0  0  0  0
    4.7347   -1.3245    0.4900 C   0  0  0  0  0  0  0  0  0  0  0  0
    3.3319   -1.3097    0.4295 C   0  0  0  0  0  0  0  0  0  0  0  0
    5.4845   -2.6161    0.7817 C   0  0  3  0  0  0  0  0  0  0  0  0
    5.4190   -3.0224    2.2726 C   0  0  0  0  0  0  0  0  0  0  0  0
    4.8634   -2.3199    3.1130 O   0  0  0  0  0  0  0  0  0  0  0  0
    5.9647   -4.2730    2.5346 N   0  0  0  0  0  0  0  0  0  0  0  0
    6.1104   -4.9044    3.8055 C   0  0  0  0  0  0  0  0  0  0  0  0
    5.6328   -4.3475    4.9926 C   0  0  0  0  0  0  0  0  0  0  0  0
    5.9147   -4.8187    6.2305 N   0  0  0  0  0  0  0  0  0  0  0  0
    6.6668   -5.9345    6.2942 C   0  0  0  0  0  0  0  0  0  0  0  0
    7.0857   -6.6658    5.1853 C   0  0  0  0  0  0  0  0  0  0  0  0
    7.7503   -7.8962    5.3428 C   0  0  0  0  0  0  0  0  0  0  0  0
    8.1402   -8.6414    4.2340 C   0  0  0  0  0  0  0  0  0  0  0  0
    7.8979   -8.1500    2.9593 C   0  0  0  0  0  0  0  0  0  0  0  0
    7.2497   -6.9219    2.7924 C   0  0  0  0  0  0  0  0  0  0  0  0
    6.8105   -6.1452    3.8979 C   0  0  0  0  0  0  0  0  0  0  0  0
    6.9196   -2.5384    0.2273 C   0  0  0  0  0  0  0  0  0  0  0  0
    7.6475   -1.3132    0.6878 N   0  0  0  0  0  0  0  0  0  0  0  0
    9.3068   -1.3181    0.2596 S   0  0  0  0  0  0  0  0  0  0  0  0
    9.8898   -2.5188    0.8196 O   0  0  0  0  0  0  0  0  0  0  0  0
    9.3868   -1.0459   -1.1596 O   0  0  0  0  0  0  0  0  0  0  0  0
    9.9506    0.0976    1.1518 C   0  0  0  0  0  0  0  0  0  0  0  0
   11.4216    0.3180    0.8332 C   0  0  0  0  0  0  0  0  0  0  0  0
   12.0153    1.5722    1.5305 C   0  0  0  0  0  0  0  0  0  0  0  0
   13.0474    1.8758    0.1278 S   0  0  0  0  0  0  0  0  0  0  0  0
   12.9747    3.2533   -0.2958 O   0  0  0  0  0  0  0  0  0  0  0  0
   14.2905    1.1371    0.2172 O   0  0  0  0  0  0  0  0  0  0  0  0
   11.7513    0.8999   -0.5736 C   0  0  0  0  0  0  0  0  0  0  0  0
    6.9428   -0.0710    0.2752 C   0  0  0  0  0  0  0  0  0  0  0  0
    2.8155    2.0112   -0.1422 H   0  0  0  0  0  0  0  0  0  0  0  0
    5.2731    2.0110   -0.0494 H   0  0  0  0  0  0  0  0  0  0  0  0
    2.7653   -2.2296    0.5716 H   0  0  0  0  0  0  0  0  0  0  0  0
    4.9728   -3.4204    0.2328 H   0  0  0  0  0  0  0  0  0  0  0  0
    6.4265   -4.7387    1.7719 H   0  0  0  0  0  0  0  0  0  0  0  0
    4.9877   -3.4758    5.0125 H   0  0  0  0  0  0  0  0  0  0  0  0
    6.9232   -6.2433    7.3049 H   0  0  0  0  0  0  0  0  0  0  0  0
    7.9424   -8.2964    6.3368 H   0  0  0  0  0  0  0  0  0  0  0  0
    8.6231   -9.6063    4.3655 H   0  0  0  0  0  0  0  0  0  0  0  0
    8.2017   -8.7262    2.0884 H   0  0  0  0  0  0  0  0  0  0  0  0
    7.0673   -6.6076    1.7702 H   0  0  0  0  0  0  0  0  0  0  0  0
    6.8810   -2.5293   -0.8702 H   0  0  0  0  0  0  0  0  0  0  0  0
    7.4867   -3.4286    0.5213 H   0  0  0  0  0  0  0  0  0  0  0  0
    9.8020   -0.0982    2.2175 H   0  0  0  0  0  0  0  0  0  0  0  0
    9.3739    0.9762    0.8552 H   0  0  0  0  0  0  0  0  0  0  0  0
   12.0166   -0.5798    1.0576 H   0  0  0  0  0  0  0  0  0  0  0  0
   12.5656    1.3713    2.4519 H   0  0  0  0  0  0  0  0  0  0  0  0
   11.3135    2.3939    1.6997 H   0  0  0  0  0  0  0  0  0  0  0  0
   12.1005    0.1729   -1.3107 H   0  0  0  0  0  0  0  0  0  0  0  0
   10.9739    1.5288   -1.0189 H   0  0  0  0  0  0  0  0  0  0  0  0
    7.2335    0.2006   -0.7455 H   0  0  0  0  0  0  0  0  0  0  0  0
    7.2493    0.7263    0.9606 H   0  0  0  0  0  0  0  0  0  0  0  0
  1  2  1  0  0  0  0
  2  3  1  0  0  0  0
  2  7  2  0  0  0  0
  3  4  2  0  0  0  0
  3 35  1  0  0  0  0
  4  5  1  0  0  0  0
  4 36  1  0  0  0  0
  5  6  2  0  0  0  0
  5 34  1  0  0  0  0
  6  7  1  0  0  0  0
  6  8  1  0  0  0  0
  7 37  1  0  0  0  0
  8  9  1  0  0  0  0
  8 22  1  0  0  0  0
  8 38  1  0  0  0  0
  9 10  2  0  0  0  0
  9 11  1  0  0  0  0
 11 12  1  0  0  0  0
 11 39  1  0  0  0  0
 12 13  1  0  0  0  0
 12 21  2  0  0  0  0
 13 14  2  0  0  0  0
 13 40  1  0  0  0  0
 14 15  1  0  0  0  0
 15 16  2  0  0  0  0
 15 41  1  0  0  0  0
 16 17  1  0  0  0  0
 16 21  1  0  0  0  0
 17 18  2  0  0  0  0
 17 42  1  0  0  0  0
 18 19  1  0  0  0  0
 18 43  1  0  0  0  0
 19 20  2  0  0  0  0
 19 44  1  0  0  0  0
 20 21  1  0  0  0  0
 20 45  1  0  0  0  0
 22 23  1  0  0  0  0
 22 46  1  0  0  0  0
 22 47  1  0  0  0  0
 23 24  1  0  0  0  0
 23 34  1  0  0  0  0
 24 25  2  0  0  0  0
 24 26  2  0  0  0  0
 24 27  1  0  0  0  0
 27 28  1  0  0  0  0
 27 48  1  0  0  0  0
 27 49  1  0  0  0  0
 28 29  1  0  0  0  0
 28 33  1  0  0  0  0
 28 50  1  0  0  0  0
 29 30  1  0  0  0  0
 29 51  1  0  0  0  0
 29 52  1  0  0  0  0
 30 31  2  0  0  0  0
 30 32  2  0  0  0  0
 30 33  1  0  0  0  0
 33 53  1  0  0  0  0
 33 54  1  0  0  0  0
 34 55  1  0  0  0  0
 34 56  1  0  0  0  0
M  END
$$$$
