
 OpenBabel07202414123D

 59 63  0  0  1  0  0  0  0  0999 V2000
    4.8236   -1.6928    0.9403 C   0  0  0  0  0  0  0  0  0  0  0  0
    3.5755   -1.7204    0.0488 C   0  0  0  0  0  0  0  0  0  0  0  0
    3.9071   -1.7139   -1.4708 C   0  0  0  0  0  0  0  0  0  0  0  0
    4.8266   -0.2325   -1.9586 S   0  0  0  0  0  0  0  0  0  0  0  0
    3.9816    0.9113   -1.6947 O   0  0  0  0  0  0  0  0  0  0  0  0
    6.1628   -0.3054   -1.4073 O   0  0  0  0  0  0  0  0  0  0  0  0
    5.0070   -0.3448   -3.6609 N   0  0  0  0  0  0  0  0  0  0  0  0
    5.9539   -1.4084   -4.1408 C   0  0  0  0  0  0  0  0  0  0  0  0
    5.9200   -1.5171   -5.6803 C   0  0  2  0  0  0  0  0  0  0  0  0
    6.9572   -2.5806   -6.0775 C   0  0  0  0  0  0  0  0  0  0  0  0
    8.1369   -2.4734   -5.7535 O   0  0  0  0  0  0  0  0  0  0  0  0
    6.4147   -3.6347   -6.8006 N   0  0  0  0  0  0  0  0  0  0  0  0
    7.1073   -4.7345   -7.3887 C   0  0  0  0  0  0  0  0  0  0  0  0
    8.4951   -4.8752   -7.3334 C   0  0  0  0  0  0  0  0  0  0  0  0
    9.2017   -5.8072   -8.0168 N   0  0  0  0  0  0  0  0  0  0  0  0
    8.4932   -6.6856   -8.7522 C   0  0  0  0  0  0  0  0  0  0  0  0
    7.1028   -6.7389   -8.7878 C   0  0  0  0  0  0  0  0  0  0  0  0
    6.4428   -7.7777   -9.4704 C   0  0  0  0  0  0  0  0  0  0  0  0
    5.0536   -7.8508   -9.4810 C   0  0  0  0  0  0  0  0  0  0  0  0
    4.3124   -6.8685   -8.8398 C   0  0  0  0  0  0  0  0  0  0  0  0
    4.9598   -5.8251   -8.1670 C   0  0  0  0  0  0  0  0  0  0  0  0
    6.3758   -5.7338   -8.1030 C   0  0  0  0  0  0  0  0  0  0  0  0
    6.1409   -0.1688   -6.3547 C   0  0  0  0  0  0  0  0  0  0  0  0
    6.5206   -0.0678   -7.7066 C   0  0  0  0  0  0  0  0  0  0  0  0
    6.6724    1.1829   -8.3127 C   0  0  0  0  0  0  0  0  0  0  0  0
    7.1318    1.2835   -9.9684 Cl  0  0  0  0  0  0  0  0  0  0  0  0
    6.4478    2.3507   -7.5928 C   0  0  0  0  0  0  0  0  0  0  0  0
    6.0528    2.2658   -6.2598 C   0  0  0  0  0  0  0  0  0  0  0  0
    5.8756    1.0146   -5.6388 C   0  0  0  0  0  0  0  0  0  0  0  0
    5.4565    0.9936   -4.1846 C   0  0  0  0  0  0  0  0  0  0  0  0
    2.4898   -0.7027    0.5281 C   0  0  0  0  0  0  0  0  0  0  0  0
    1.2584   -1.9579    0.6266 S   0  0  0  0  0  0  0  0  0  0  0  0
    0.6878   -2.0511    1.9574 O   0  0  0  0  0  0  0  0  0  0  0  0
    0.4673   -2.0274   -0.5795 O   0  0  0  0  0  0  0  0  0  0  0  0
    2.7072   -2.9458    0.4803 C   0  0  0  0  0  0  0  0  0  0  0  0
    5.3870   -0.7644    0.8286 H   0  0  0  0  0  0  0  0  0  0  0  0
    5.4842   -2.5370    0.7156 H   0  0  0  0  0  0  0  0  0  0  0  0
    4.5557   -1.7548    2.0019 H   0  0  0  0  0  0  0  0  0  0  0  0
    2.9908   -1.7378   -2.0709 H   0  0  0  0  0  0  0  0  0  0  0  0
    4.5252   -2.5805   -1.7236 H   0  0  0  0  0  0  0  0  0  0  0  0
    5.6556   -2.3747   -3.7195 H   0  0  0  0  0  0  0  0  0  0  0  0
    6.9678   -1.1847   -3.7848 H   0  0  0  0  0  0  0  0  0  0  0  0
    4.9164   -1.8460   -5.9788 H   0  0  0  0  0  0  0  0  0  0  0  0
    5.4335   -3.5700   -7.0282 H   0  0  0  0  0  0  0  0  0  0  0  0
    9.1275   -4.2280   -6.7355 H   0  0  0  0  0  0  0  0  0  0  0  0
    9.1007   -7.3822   -9.3258 H   0  0  0  0  0  0  0  0  0  0  0  0
    7.0121   -8.5580   -9.9730 H   0  0  0  0  0  0  0  0  0  0  0  0
    4.5533   -8.6771   -9.9803 H   0  0  0  0  0  0  0  0  0  0  0  0
    3.2260   -6.9190   -8.8480 H   0  0  0  0  0  0  0  0  0  0  0  0
    4.3228   -5.1055   -7.6632 H   0  0  0  0  0  0  0  0  0  0  0  0
    6.7086   -0.9587   -8.3015 H   0  0  0  0  0  0  0  0  0  0  0  0
    6.5744    3.3242   -8.0595 H   0  0  0  0  0  0  0  0  0  0  0  0
    5.8800    3.1853   -5.7016 H   0  0  0  0  0  0  0  0  0  0  0  0
    4.6249    1.6983   -4.0673 H   0  0  0  0  0  0  0  0  0  0  0  0
    6.3135    1.3491   -3.5970 H   0  0  0  0  0  0  0  0  0  0  0  0
    2.2026    0.0820   -0.1750 H   0  0  0  0  0  0  0  0  0  0  0  0
    2.6801   -0.2391    1.5012 H   0  0  0  0  0  0  0  0  0  0  0  0
    2.6051   -3.7461   -0.2598 H   0  0  0  0  0  0  0  0  0  0  0  0
    2.9724   -3.4060    1.4390 H   0  0  0  0  0  0  0  0  0  0  0  0
  1  2  1  0  0  0  0
  1 36  1  0  0  0  0
  1 37  1  0  0  0  0
  1 38  1  0  0  0  0
  2  3  1  0  0  0  0
  2 31  1  0  0  0  0
  2 35  1  0  0  0  0
  3  4  1  0  0  0  0
  3 39  1  0  0  0  0
  3 40  1  0  0  0  0
  4  5  2  0  0  0  0
  4  6  2  0  0  0  0
  4  7  1  0  0  0  0
  7  8  1  0  0  0  0
  7 30  1  0  0  0  0
  8  9  1  0  0  0  0
  8 41  1  0  0  0  0
  8 42  1  0  0  0  0
  9 23  1  0  0  0  0
  9 10  1  0  0  0  0
  9 43  1  6  0  0  0
 10 11  2  0  0  0  0
 10 12  1  0  0  0  0
 12 13  1  0  0  0  0
 12 44  1  0  0  0  0
 13 14  1  0  0  0  0
 13 22  2  0  0  0  0
 14 15  2  0  0  0  0
 14 45  1  0  0  0  0
 15 16  1  0  0  0  0
 16 17  2  0  0  0  0
 16 46  1  0  0  0  0
 17 18  1  0  0  0  0
 17 22  1  0  0  0  0
 18 19  2  0  0  0  0
 18 47  1  0  0  0  0
 19 20  1  0  0  0  0
 19 48  1  0  0  0  0
 20 21  2  0  0  0  0
 20 49  1  0  0  0  0
 21 22  1  0  0  0  0
 21 50  1  0  0  0  0
 23 24  1  0  0  0  0
 23 29  2  0  0  0  0
 24 25  2  0  0  0  0
 24 51  1  0  0  0  0
 25 26  1  0  0  0  0
 25 27  1  0  0  0  0
 27 28  2  0  0  0  0
 27 52  1  0  0  0  0
 28 29  1  0  0  0  0
 28 53  1  0  0  0  0
 29 30  1  0  0  0  0
 30 54  1  0  0  0  0
 30 55  1  0  0  0  0
 31 32  1  0  0  0  0
 31 56  1  0  0  0  0
 31 57  1  0  0  0  0
 32 33  2  0  0  0  0
 32 34  2  0  0  0  0
 32 35  1  0  0  0  0
 35 58  1  0  0  0  0
 35 59  1  0  0  0  0
M  END
$$$$
