
 OpenBabel07202414143D

 57 62  0  0  1  0  0  0  0  0999 V2000
    0.7798    0.8461    1.2397 C   0  0  0  0  0  0  0  0  0  0  0  0
    2.2053    0.8564    1.4244 N   0  0  0  0  0  0  0  0  0  0  0  0
    3.0728    1.1186    0.3929 C   0  0  0  0  0  0  0  0  0  0  0  0
    2.7262    1.3962   -0.7497 O   0  0  0  0  0  0  0  0  0  0  0  0
    4.5481    1.0258    0.7562 C   0  0  0  0  0  0  0  0  0  0  0  0
    5.0645   -0.3067    1.0738 N   0  0  0  0  0  0  0  0  0  0  0  0
    5.4907   -1.1421   -0.0327 C   0  0  0  0  0  0  0  0  0  0  0  0
    6.5648   -2.1871    0.3160 C   0  0  3  0  0  0  0  0  0  0  0  0
    6.4940   -3.2850   -0.7636 C   0  0  0  0  0  0  0  0  0  0  0  0
    7.8862   -3.4403   -1.3281 C   0  0  0  0  0  0  0  0  0  0  0  0
    8.7345   -2.4753   -0.6715 N   0  0  0  0  0  0  0  0  0  0  0  0
   10.1385   -2.7771   -0.5149 C   0  0  0  0  0  0  0  0  0  0  0  0
   10.7740   -2.5362    0.7063 C   0  0  0  0  0  0  0  0  0  0  0  0
   11.9229   -3.1350    1.1052 N   0  0  0  0  0  0  0  0  0  0  0  0
   12.5118   -3.9723    0.2286 C   0  0  0  0  0  0  0  0  0  0  0  0
   12.0818   -4.1636   -1.0801 C   0  0  0  0  0  0  0  0  0  0  0  0
   12.8302   -4.9562   -1.9760 C   0  0  0  0  0  0  0  0  0  0  0  0
   12.4361   -5.0875   -3.3030 C   0  0  0  0  0  0  0  0  0  0  0  0
   11.2973   -4.4281   -3.7324 C   0  0  0  0  0  0  0  0  0  0  0  0
   10.9272   -4.5179   -5.0160 F   0  0  0  0  0  0  0  0  0  0  0  0
   10.5378   -3.6571   -2.8520 C   0  0  0  0  0  0  0  0  0  0  0  0
   10.8819   -3.5242   -1.4844 C   0  0  0  0  0  0  0  0  0  0  0  0
    7.9976   -1.6329    0.1845 C   0  0  0  0  0  0  0  0  0  0  0  0
    8.4241   -0.6730    0.8053 O   0  0  0  0  0  0  0  0  0  0  0  0
    6.3558   -2.7598    1.7186 C   0  0  0  0  0  0  0  0  0  0  0  0
    7.0922   -3.8790    2.1618 C   0  0  0  0  0  0  0  0  0  0  0  0
    6.8918   -4.4124    3.4364 C   0  0  0  0  0  0  0  0  0  0  0  0
    7.8051   -5.7802    3.9384 Cl  0  0  0  0  0  0  0  0  0  0  0  0
    5.9607   -3.8466    4.2983 C   0  0  0  0  0  0  0  0  0  0  0  0
    5.2466   -2.7196    3.8924 C   0  0  0  0  0  0  0  0  0  0  0  0
    5.4532   -2.1631    2.6186 C   0  0  0  0  0  0  0  0  0  0  0  0
    4.7626   -0.8830    2.3006 C   0  0  0  0  0  0  0  0  0  0  0  0
    4.0042   -0.3712    3.1217 O   0  0  0  0  0  0  0  0  0  0  0  0
    5.1709    2.1920    1.5153 C   0  0  0  0  0  0  0  0  0  0  0  0
    5.4803    2.0225    0.0660 C   0  0  0  0  0  0  0  0  0  0  0  0
    0.3060    0.4840    2.1561 H   0  0  0  0  0  0  0  0  0  0  0  0
    0.5219    0.1887    0.4038 H   0  0  0  0  0  0  0  0  0  0  0  0
    0.4373    1.8599    1.0191 H   0  0  0  0  0  0  0  0  0  0  0  0
    2.6111    0.5556    2.3116 H   0  0  0  0  0  0  0  0  0  0  0  0
    5.8155   -0.5161   -0.8713 H   0  0  0  0  0  0  0  0  0  0  0  0
    4.5731   -1.6580   -0.3520 H   0  0  0  0  0  0  0  0  0  0  0  0
    5.8194   -3.0155   -1.5863 H   0  0  0  0  0  0  0  0  0  0  0  0
    6.1172   -4.2425   -0.3859 H   0  0  0  0  0  0  0  0  0  0  0  0
    7.8552   -3.2239   -2.3984 H   0  0  0  0  0  0  0  0  0  0  0  0
    8.2516   -4.4593   -1.1639 H   0  0  0  0  0  0  0  0  0  0  0  0
   10.3444   -1.8966    1.4712 H   0  0  0  0  0  0  0  0  0  0  0  0
   13.3868   -4.4885    0.6175 H   0  0  0  0  0  0  0  0  0  0  0  0
   13.7426   -5.4518   -1.6491 H   0  0  0  0  0  0  0  0  0  0  0  0
   13.0218   -5.6682   -4.0082 H   0  0  0  0  0  0  0  0  0  0  0  0
    9.7040   -3.1143   -3.2812 H   0  0  0  0  0  0  0  0  0  0  0  0
    7.8425   -4.3396    1.5227 H   0  0  0  0  0  0  0  0  0  0  0  0
    5.8021   -4.2584    5.2916 H   0  0  0  0  0  0  0  0  0  0  0  0
    4.5448   -2.2587    4.5863 H   0  0  0  0  0  0  0  0  0  0  0  0
    5.9601    1.9689    2.2254 H   0  0  0  0  0  0  0  0  0  0  0  0
    4.5287    3.0113    1.8136 H   0  0  0  0  0  0  0  0  0  0  0  0
    6.4776    1.6982   -0.2050 H   0  0  0  0  0  0  0  0  0  0  0  0
    5.0468    2.7337   -0.6290 H   0  0  0  0  0  0  0  0  0  0  0  0
  1  2  1  0  0  0  0
  1 36  1  0  0  0  0
  1 37  1  0  0  0  0
  1 38  1  0  0  0  0
  2  3  1  0  0  0  0
  2 39  1  0  0  0  0
  3  4  2  0  0  0  0
  3  5  1  0  0  0  0
  5  6  1  0  0  0  0
  5 34  1  0  0  0  0
  5 35  1  0  0  0  0
  6  7  1  0  0  0  0
  6 32  1  0  0  0  0
  7  8  1  0  0  0  0
  7 40  1  0  0  0  0
  7 41  1  0  0  0  0
  8  9  1  0  0  0  0
  8 23  1  0  0  0  0
  8 25  1  0  0  0  0
  9 10  1  0  0  0  0
  9 42  1  0  0  0  0
  9 43  1  0  0  0  0
 10 11  1  0  0  0  0
 10 44  1  0  0  0  0
 10 45  1  0  0  0  0
 11 12  1  0  0  0  0
 11 23  1  0  0  0  0
 12 13  1  0  0  0  0
 12 22  2  0  0  0  0
 13 14  2  0  0  0  0
 13 46  1  0  0  0  0
 14 15  1  0  0  0  0
 15 16  2  0  0  0  0
 15 47  1  0  0  0  0
 16 17  1  0  0  0  0
 16 22  1  0  0  0  0
 17 18  2  0  0  0  0
 17 48  1  0  0  0  0
 18 19  1  0  0  0  0
 18 49  1  0  0  0  0
 19 20  1  0  0  0  0
 19 21  2  0  0  0  0
 21 22  1  0  0  0  0
 21 50  1  0  0  0  0
 23 24  2  0  0  0  0
 25 26  1  0  0  0  0
 25 31  2  0  0  0  0
 26 27  2  0  0  0  0
 26 51  1  0  0  0  0
 27 28  1  0  0  0  0
 27 29  1  0  0  0  0
 29 30  2  0  0  0  0
 29 52  1  0  0  0  0
 30 31  1  0  0  0  0
 30 53  1  0  0  0  0
 31 32  1  0  0  0  0
 32 33  2  0  0  0  0
 34 35  1  0  0  0  0
 34 54  1  0  0  0  0
 34 55  1  0  0  0  0
 35 56  1  0  0  0  0
 35 57  1  0  0  0  0
M  END
$$$$
