
 OpenBabel07202414213D

 39 42  0  0  1  0  0  0  0  0999 V2000
    4.2513   -1.1141   -0.2048 C   0  0  0  0  0  0  0  0  0  0  0  0
    4.4541    0.2531   -0.3207 C   0  0  0  0  0  0  0  0  0  0  0  0
    3.3753    1.1449   -0.2130 C   0  0  0  0  0  0  0  0  0  0  0  0
    2.0466    0.6933    0.0072 C   0  0  0  0  0  0  0  0  0  0  0  0
    1.8813   -0.7127    0.1283 C   0  0  0  0  0  0  0  0  0  0  0  0
    2.9683   -1.5958    0.0255 C   0  0  0  0  0  0  0  0  0  0  0  0
    0.6045   -1.2196    0.3539 C   0  0  0  0  0  0  0  0  0  0  0  0
   -0.5056   -0.4716    0.4458 N   0  0  0  0  0  0  0  0  0  0  0  0
   -0.3415    0.8655    0.3275 C   0  0  0  0  0  0  0  0  0  0  0  0
    0.8823    1.5175    0.1277 C   0  0  0  0  0  0  0  0  0  0  0  0
    0.9618    2.9427    0.0271 N   0  0  0  0  0  0  0  0  0  0  0  0
   -0.0729    3.8280    0.3159 C   0  0  0  0  0  0  0  0  0  0  0  0
   -1.1636    3.5112    0.7807 O   0  0  0  0  0  0  0  0  0  0  0  0
    0.2625    5.2922    0.0974 C   0  0  1  0  0  0  0  0  0  0  0  0
   -1.0056    6.1253   -0.1345 C   0  0  0  0  0  0  0  0  0  0  0  0
   -0.7225    7.5943    0.0258 C   0  0  0  0  0  0  0  0  0  0  0  0
   -1.6495    8.5462   -0.4277 C   0  0  0  0  0  0  0  0  0  0  0  0
   -1.3902    9.9082   -0.2647 C   0  0  0  0  0  0  0  0  0  0  0  0
   -0.2172   10.3355    0.3531 C   0  0  0  0  0  0  0  0  0  0  0  0
    0.7008    9.3929    0.8179 C   0  0  0  0  0  0  0  0  0  0  0  0
    0.4426    8.0302    0.6680 C   0  0  0  0  0  0  0  0  0  0  0  0
    1.4010    7.1783    1.1511 O   0  0  0  0  0  0  0  0  0  0  0  0
    0.9444    5.8354    1.3452 C   0  0  0  0  0  0  0  0  0  0  0  0
   -2.5262   11.0699   -0.8322 Cl  0  0  0  0  0  0  0  0  0  0  0  0
    5.0847   -1.8094   -0.2882 H   0  0  0  0  0  0  0  0  0  0  0  0
    5.4604    0.6305   -0.4943 H   0  0  0  0  0  0  0  0  0  0  0  0
    3.6022    2.2034   -0.3034 H   0  0  0  0  0  0  0  0  0  0  0  0
    2.8186   -2.6707    0.1222 H   0  0  0  0  0  0  0  0  0  0  0  0
    0.4294   -2.2858    0.4687 H   0  0  0  0  0  0  0  0  0  0  0  0
   -1.2843    1.3937    0.3779 H   0  0  0  0  0  0  0  0  0  0  0  0
    1.8542    3.3329   -0.2432 H   0  0  0  0  0  0  0  0  0  0  0  0
    0.9224    5.4016   -0.7732 H   0  0  0  0  0  0  0  0  0  0  0  0
   -1.7940    5.8620    0.5828 H   0  0  0  0  0  0  0  0  0  0  0  0
   -1.3989    5.9201   -1.1378 H   0  0  0  0  0  0  0  0  0  0  0  0
   -2.5725    8.2264   -0.9056 H   0  0  0  0  0  0  0  0  0  0  0  0
   -0.0135   11.3951    0.4805 H   0  0  0  0  0  0  0  0  0  0  0  0
    1.6139    9.7201    1.3084 H   0  0  0  0  0  0  0  0  0  0  0  0
    0.2821    5.8029    2.2216 H   0  0  0  0  0  0  0  0  0  0  0  0
    1.8231    5.2320    1.5978 H   0  0  0  0  0  0  0  0  0  0  0  0
  1  2  1  0  0  0  0
  1  6  2  0  0  0  0
  1 25  1  0  0  0  0
  2  3  2  0  0  0  0
  2 26  1  0  0  0  0
  3  4  1  0  0  0  0
  3 27  1  0  0  0  0
  4  5  1  0  0  0  0
  4 10  2  0  0  0  0
  5  6  1  0  0  0  0
  5  7  2  0  0  0  0
  6 28  1  0  0  0  0
  7  8  1  0  0  0  0
  7 29  1  0  0  0  0
  8  9  2  0  0  0  0
  9 10  1  0  0  0  0
  9 30  1  0  0  0  0
 10 11  1  0  0  0  0
 11 12  1  0  0  0  0
 11 31  1  0  0  0  0
 12 13  2  0  0  0  0
 12 14  1  0  0  0  0
 14 15  1  0  0  0  0
 14 23  1  0  0  0  0
 14 32  1  6  0  0  0
 15 16  1  0  0  0  0
 15 33  1  0  0  0  0
 15 34  1  0  0  0  0
 16 17  1  0  0  0  0
 16 21  2  0  0  0  0
 17 18  2  0  0  0  0
 17 35  1  0  0  0  0
 18 19  1  0  0  0  0
 18 24  1  0  0  0  0
 19 20  2  0  0  0  0
 19 36  1  0  0  0  0
 20 21  1  0  0  0  0
 20 37  1  0  0  0  0
 21 22  1  0  0  0  0
 22 23  1  0  0  0  0
 23 38  1  0  0  0  0
 23 39  1  0  0  0  0
M  END
$$$$
