
 OpenBabel07202414143D

 49 52  0  0  1  0  0  0  0  0999 V2000
    1.3399    0.4251   -0.3020 C   0  0  0  0  0  0  0  0  0  0  0  0
    2.7789    0.3456   -0.2770 N   0  0  0  0  0  0  0  0  0  0  0  0
    3.5643    0.3512   -1.4186 C   0  0  0  0  0  0  0  0  0  0  0  0
    3.0776    0.3592   -2.5471 O   0  0  0  0  0  0  0  0  0  0  0  0
    5.1014    0.2120   -1.1759 C   0  0  3  0  0  0  0  0  0  0  0  0
    5.8758    0.7610   -2.4147 C   0  0  0  0  0  0  0  0  0  0  0  0
    7.3999    0.6825   -2.2713 C   0  0  0  0  0  0  0  0  0  0  0  0
    8.0092    1.2813   -1.3885 O   0  0  0  0  0  0  0  0  0  0  0  0
    7.9947   -0.1153   -3.2353 N   0  0  0  0  0  0  0  0  0  0  0  0
    9.3346   -0.5989   -3.2598 C   0  0  0  0  0  0  0  0  0  0  0  0
   10.2305   -0.4177   -2.2051 C   0  0  0  0  0  0  0  0  0  0  0  0
   11.4328   -1.0432   -2.1083 N   0  0  0  0  0  0  0  0  0  0  0  0
   11.7901   -1.8286   -3.1398 C   0  0  0  0  0  0  0  0  0  0  0  0
   11.0515   -1.9778   -4.3123 C   0  0  0  0  0  0  0  0  0  0  0  0
   11.5596   -2.7022   -5.4055 C   0  0  0  0  0  0  0  0  0  0  0  0
   10.8371   -2.8007   -6.5908 C   0  0  0  0  0  0  0  0  0  0  0  0
    9.5803   -2.2203   -6.6771 C   0  0  0  0  0  0  0  0  0  0  0  0
    9.0545   -1.5219   -5.5861 C   0  0  0  0  0  0  0  0  0  0  0  0
    9.7817   -1.3551   -4.3851 C   0  0  0  0  0  0  0  0  0  0  0  0
    5.3918   -1.3031   -1.0519 C   0  0  0  0  0  0  0  0  0  0  0  0
    5.1372   -1.8075    0.3546 C   0  0  0  0  0  0  0  0  0  0  0  0
    5.9319   -1.1169    1.3168 O   0  0  0  0  0  0  0  0  0  0  0  0
    5.8892    0.2470    1.2377 C   0  0  0  0  0  0  0  0  0  0  0  0
    6.2829    0.9385    2.3859 C   0  0  0  0  0  0  0  0  0  0  0  0
    6.2309    2.3343    2.4213 C   0  0  0  0  0  0  0  0  0  0  0  0
    5.7851    3.0370    1.3112 C   0  0  0  0  0  0  0  0  0  0  0  0
    5.6792    4.7524    1.3612 Cl  0  0  0  0  0  0  0  0  0  0  0  0
    5.4101    2.3579    0.1564 C   0  0  0  0  0  0  0  0  0  0  0  0
    5.4907    0.9511    0.0954 C   0  0  0  0  0  0  0  0  0  0  0  0
    0.9892    0.5560    0.7257 H   0  0  0  0  0  0  0  0  0  0  0  0
    0.9391   -0.5054   -0.7092 H   0  0  0  0  0  0  0  0  0  0  0  0
    1.0215    1.2710   -0.9140 H   0  0  0  0  0  0  0  0  0  0  0  0
    3.2205    0.4904    0.6231 H   0  0  0  0  0  0  0  0  0  0  0  0
    5.6337    1.8145   -2.6072 H   0  0  0  0  0  0  0  0  0  0  0  0
    5.5594    0.2232   -3.3148 H   0  0  0  0  0  0  0  0  0  0  0  0
    7.3910   -0.4579   -3.9672 H   0  0  0  0  0  0  0  0  0  0  0  0
   10.0193    0.2305   -1.3583 H   0  0  0  0  0  0  0  0  0  0  0  0
   12.7387   -2.3426   -3.0037 H   0  0  0  0  0  0  0  0  0  0  0  0
   12.5463   -3.1615   -5.3529 H   0  0  0  0  0  0  0  0  0  0  0  0
   11.2605   -3.3141   -7.4493 H   0  0  0  0  0  0  0  0  0  0  0  0
    9.0111   -2.2860   -7.6015 H   0  0  0  0  0  0  0  0  0  0  0  0
    8.0792   -1.0647   -5.7254 H   0  0  0  0  0  0  0  0  0  0  0  0
    6.4427   -1.5129   -1.2843 H   0  0  0  0  0  0  0  0  0  0  0  0
    4.7927   -1.8776   -1.7703 H   0  0  0  0  0  0  0  0  0  0  0  0
    5.4167   -2.8658    0.4088 H   0  0  0  0  0  0  0  0  0  0  0  0
    4.0819   -1.7536    0.6396 H   0  0  0  0  0  0  0  0  0  0  0  0
    6.6224    0.3838    3.2562 H   0  0  0  0  0  0  0  0  0  0  0  0
    6.5409    2.8589    3.3210 H   0  0  0  0  0  0  0  0  0  0  0  0
    5.0612    2.9286   -0.7001 H   0  0  0  0  0  0  0  0  0  0  0  0
  1  2  1  0  0  0  0
  1 30  1  0  0  0  0
  1 31  1  0  0  0  0
  1 32  1  0  0  0  0
  2  3  1  0  0  0  0
  2 33  1  0  0  0  0
  3  4  2  0  0  0  0
  3  5  1  0  0  0  0
  5  6  1  0  0  0  0
  5 20  1  0  0  0  0
  5 29  1  0  0  0  0
  6  7  1  0  0  0  0
  6 34  1  0  0  0  0
  6 35  1  0  0  0  0
  7  8  2  0  0  0  0
  7  9  1  0  0  0  0
  9 10  1  0  0  0  0
  9 36  1  0  0  0  0
 10 11  1  0  0  0  0
 10 19  2  0  0  0  0
 11 12  2  0  0  0  0
 11 37  1  0  0  0  0
 12 13  1  0  0  0  0
 13 14  2  0  0  0  0
 13 38  1  0  0  0  0
 14 15  1  0  0  0  0
 14 19  1  0  0  0  0
 15 16  2  0  0  0  0
 15 39  1  0  0  0  0
 16 17  1  0  0  0  0
 16 40  1  0  0  0  0
 17 18  2  0  0  0  0
 17 41  1  0  0  0  0
 18 19  1  0  0  0  0
 18 42  1  0  0  0  0
 20 21  1  0  0  0  0
 20 43  1  0  0  0  0
 20 44  1  0  0  0  0
 21 22  1  0  0  0  0
 21 45  1  0  0  0  0
 21 46  1  0  0  0  0
 22 23  1  0  0  0  0
 23 24  1  0  0  0  0
 23 29  2  0  0  0  0
 24 25  2  0  0  0  0
 24 47  1  0  0  0  0
 25 26  1  0  0  0  0
 25 48  1  0  0  0  0
 26 27  1  0  0  0  0
 26 28  2  0  0  0  0
 28 29  1  0  0  0  0
 28 49  1  0  0  0  0
M  END
$$$$
