
 OpenBabel07202414153D

 42 45  0  0  1  0  0  0  0  0999 V2000
    1.1532    0.1288    0.1161 C   0  0  0  0  0  0  0  0  0  0  0  0
    2.6714    0.0268    0.0043 C   0  0  2  0  0  0  0  0  0  0  0  0
    3.1945   -1.1913    0.7674 C   0  0  0  0  0  0  0  0  0  0  0  0
    4.7144   -1.2863    0.5658 C   0  0  2  0  0  0  0  0  0  0  0  0
    5.3257    0.0582    0.8853 C   0  0  0  0  0  0  0  0  0  0  0  0
    6.6801    0.1506    1.2522 C   0  0  0  0  0  0  0  0  0  0  0  0
    7.2714    1.3966    1.4476 C   0  0  0  0  0  0  0  0  0  0  0  0
    6.5128    2.5578    1.3424 C   0  0  0  0  0  0  0  0  0  0  0  0
    5.1527    2.4697    1.0400 C   0  0  0  0  0  0  0  0  0  0  0  0
    4.5633    1.2278    0.7969 C   0  0  0  0  0  0  0  0  0  0  0  0
    3.2249    1.2475    0.5178 O   0  0  0  0  0  0  0  0  0  0  0  0
    8.9570    1.4933    1.7701 Cl  0  0  0  0  0  0  0  0  0  0  0  0
    5.0333   -1.8425   -0.8420 C   0  0  0  0  0  0  0  0  0  0  0  0
    4.2780   -2.6674   -1.3548 O   0  0  0  0  0  0  0  0  0  0  0  0
    6.2125   -1.4032   -1.4258 N   0  0  0  0  0  0  0  0  0  0  0  0
    6.6993   -1.7599   -2.7127 C   0  0  0  0  0  0  0  0  0  0  0  0
    6.2000   -2.8530   -3.4230 C   0  0  0  0  0  0  0  0  0  0  0  0
    6.4873   -3.1264   -4.7151 N   0  0  0  0  0  0  0  0  0  0  0  0
    7.3102   -2.2617   -5.3368 C   0  0  0  0  0  0  0  0  0  0  0  0
    7.9420   -1.1885   -4.7173 C   0  0  0  0  0  0  0  0  0  0  0  0
    7.6887   -0.9547   -3.3463 C   0  0  0  0  0  0  0  0  0  0  0  0
    8.4401    0.0773   -2.7237 C   0  0  0  0  0  0  0  0  0  0  0  0
    9.3462    0.8685   -3.4392 C   0  0  0  0  0  0  0  0  0  0  0  0
    9.5204    0.6658   -4.8009 C   0  0  0  0  0  0  0  0  0  0  0  0
    8.8252   -0.3568   -5.4366 C   0  0  0  0  0  0  0  0  0  0  0  0
    0.6639   -0.7603   -0.2935 H   0  0  0  0  0  0  0  0  0  0  0  0
    0.7874    1.0068   -0.4280 H   0  0  0  0  0  0  0  0  0  0  0  0
    0.8402    0.2532    1.1588 H   0  0  0  0  0  0  0  0  0  0  0  0
    2.9269   -0.0357   -1.0612 H   0  0  0  0  0  0  0  0  0  0  0  0
    2.6846   -2.1037    0.4380 H   0  0  0  0  0  0  0  0  0  0  0  0
    2.9821   -1.0712    1.8388 H   0  0  0  0  0  0  0  0  0  0  0  0
    5.0996   -2.0291    1.2766 H   0  0  0  0  0  0  0  0  0  0  0  0
    7.2829   -0.7521    1.3471 H   0  0  0  0  0  0  0  0  0  0  0  0
    6.9693    3.5322    1.4946 H   0  0  0  0  0  0  0  0  0  0  0  0
    4.5512    3.3739    0.9793 H   0  0  0  0  0  0  0  0  0  0  0  0
    6.6166   -0.5616   -1.0433 H   0  0  0  0  0  0  0  0  0  0  0  0
    5.5311   -3.5798   -2.9724 H   0  0  0  0  0  0  0  0  0  0  0  0
    7.4654   -2.4778   -6.3920 H   0  0  0  0  0  0  0  0  0  0  0  0
    8.3640    0.2635   -1.6563 H   0  0  0  0  0  0  0  0  0  0  0  0
    9.9182    1.6380   -2.9278 H   0  0  0  0  0  0  0  0  0  0  0  0
   10.2042    1.2969   -5.3657 H   0  0  0  0  0  0  0  0  0  0  0  0
    8.9804   -0.5121   -6.5043 H   0  0  0  0  0  0  0  0  0  0  0  0
  1  2  1  0  0  0  0
  1 26  1  0  0  0  0
  1 27  1  0  0  0  0
  1 28  1  0  0  0  0
  2  3  1  0  0  0  0
  2 11  1  0  0  0  0
  2 29  1  6  0  0  0
  3  4  1  0  0  0  0
  3 30  1  0  0  0  0
  3 31  1  0  0  0  0
  4  5  1  0  0  0  0
  4 13  1  0  0  0  0
  4 32  1  1  0  0  0
  5  6  1  0  0  0  0
  5 10  2  0  0  0  0
  6  7  2  0  0  0  0
  6 33  1  0  0  0  0
  7  8  1  0  0  0  0
  7 12  1  0  0  0  0
  8  9  2  0  0  0  0
  8 34  1  0  0  0  0
  9 10  1  0  0  0  0
  9 35  1  0  0  0  0
 10 11  1  0  0  0  0
 13 14  2  0  0  0  0
 13 15  1  0  0  0  0
 15 16  1  0  0  0  0
 15 36  1  0  0  0  0
 16 17  1  0  0  0  0
 16 21  2  0  0  0  0
 17 18  2  0  0  0  0
 17 37  1  0  0  0  0
 18 19  1  0  0  0  0
 19 20  2  0  0  0  0
 19 38  1  0  0  0  0
 20 21  1  0  0  0  0
 20 25  1  0  0  0  0
 21 22  1  0  0  0  0
 22 23  2  0  0  0  0
 22 39  1  0  0  0  0
 23 24  1  0  0  0  0
 23 40  1  0  0  0  0
 24 25  2  0  0  0  0
 24 41  1  0  0  0  0
 25 42  1  0  0  0  0
M  END
$$$$
