
 OpenBabel07202414133D

 63 67  0  0  0  0  0  0  0  0999 V2000
   -7.1955   -1.0293   -1.8218 C   0  0  0  0  0  0  0  0  0  0  0  0
   -6.3450   -1.4644   -0.7112 N   0  0  0  0  0  0  0  0  0  0  0  0
   -5.0975   -0.6582   -0.6872 C   0  0  0  0  0  0  0  0  0  0  0  0
   -4.1914   -0.9287    0.5405 C   0  0  0  0  0  0  0  0  0  0  0  0
   -4.9778   -0.7577    1.7656 N   0  0  0  0  0  0  0  0  0  0  0  0
   -4.3936   -0.3522    2.9723 C   0  0  0  0  0  0  0  0  0  0  0  0
   -3.0471   -0.5894    3.3592 C   0  0  0  0  0  0  0  0  0  0  0  0
   -2.2021   -1.4325    2.5826 N   0  0  0  0  0  0  0  0  0  0  0  0
   -0.7931   -1.4123    2.4713 C   0  0  0  0  0  0  0  0  0  0  0  0
   -0.0567   -0.2133    2.5066 C   0  0  0  0  0  0  0  0  0  0  0  0
    1.3420   -0.1840    2.3014 C   0  0  0  0  0  0  0  0  0  0  0  0
    2.0259    1.1635    2.2014 C   0  0  0  0  0  0  0  0  0  0  0  0
    3.4996    1.2544    2.5779 C   0  0  0  0  0  0  0  0  0  0  0  0
    4.3326    1.6029    1.7426 O   0  0  0  0  0  0  0  0  0  0  0  0
    3.7729    0.9674    3.9049 N   0  0  0  0  0  0  0  0  0  0  0  0
    5.0626    1.0949    4.4959 C   0  0  0  0  0  0  0  0  0  0  0  0
    6.0004    2.0262    4.0351 C   0  0  0  0  0  0  0  0  0  0  0  0
    7.2598    2.1512    4.5190 N   0  0  0  0  0  0  0  0  0  0  0  0
    7.6540    1.2112    5.3981 C   0  0  0  0  0  0  0  0  0  0  0  0
    6.8406    0.1765    5.8578 C   0  0  0  0  0  0  0  0  0  0  0  0
    7.3711   -0.8998    6.5875 C   0  0  0  0  0  0  0  0  0  0  0  0
    6.5365   -1.8968    7.0833 C   0  0  0  0  0  0  0  0  0  0  0  0
    5.1601   -1.7648    6.9534 C   0  0  0  0  0  0  0  0  0  0  0  0
    4.6290   -0.7264    6.1840 C   0  0  0  0  0  0  0  0  0  0  0  0
    5.4692    0.2022    5.5223 C   0  0  0  0  0  0  0  0  0  0  0  0
    2.0058   -1.3912    2.0306 C   0  0  0  0  0  0  0  0  0  0  0  0
    1.2763   -2.5814    1.9835 C   0  0  0  0  0  0  0  0  0  0  0  0
    2.0857   -4.0587    1.6204 Cl  0  0  0  0  0  0  0  0  0  0  0  0
   -0.1038   -2.5994    2.1933 C   0  0  0  0  0  0  0  0  0  0  0  0
   -2.5800   -0.0961    4.5998 C   0  0  0  0  0  0  0  0  0  0  0  0
   -3.3915    0.6611    5.4318 C   0  0  0  0  0  0  0  0  0  0  0  0
   -4.7009    0.9278    5.0524 C   0  0  0  0  0  0  0  0  0  0  0  0
   -5.1863    0.4214    3.8482 C   0  0  0  0  0  0  0  0  0  0  0  0
   -6.1840   -1.5947    1.8165 C   0  0  0  0  0  0  0  0  0  0  0  0
   -7.0647   -1.3094    0.5745 C   0  0  0  0  0  0  0  0  0  0  0  0
   -6.7104   -1.2471   -2.7812 H   0  0  0  0  0  0  0  0  0  0  0  0
   -7.4140    0.0419   -1.7824 H   0  0  0  0  0  0  0  0  0  0  0  0
   -8.1498   -1.5700   -1.8187 H   0  0  0  0  0  0  0  0  0  0  0  0
   -5.3484    0.4121   -0.6958 H   0  0  0  0  0  0  0  0  0  0  0  0
   -4.5191   -0.8654   -1.5958 H   0  0  0  0  0  0  0  0  0  0  0  0
   -3.3585   -0.2198    0.4971 H   0  0  0  0  0  0  0  0  0  0  0  0
   -3.7916   -1.9494    0.4816 H   0  0  0  0  0  0  0  0  0  0  0  0
   -2.6070   -2.3653    2.5763 H   0  0  0  0  0  0  0  0  0  0  0  0
   -0.5963    0.7226    2.6335 H   0  0  0  0  0  0  0  0  0  0  0  0
    1.4983    1.8936    2.8249 H   0  0  0  0  0  0  0  0  0  0  0  0
    1.9335    1.4995    1.1624 H   0  0  0  0  0  0  0  0  0  0  0  0
    3.1064    0.3657    4.3687 H   0  0  0  0  0  0  0  0  0  0  0  0
    5.7714    2.7302    3.2440 H   0  0  0  0  0  0  0  0  0  0  0  0
    8.6835    1.3113    5.7344 H   0  0  0  0  0  0  0  0  0  0  0  0
    8.4474   -0.9968    6.7163 H   0  0  0  0  0  0  0  0  0  0  0  0
    6.9602   -2.7657    7.5799 H   0  0  0  0  0  0  0  0  0  0  0  0
    4.4987   -2.4917    7.4179 H   0  0  0  0  0  0  0  0  0  0  0  0
    3.5480   -0.6615    6.1033 H   0  0  0  0  0  0  0  0  0  0  0  0
    3.0696   -1.4068    1.8137 H   0  0  0  0  0  0  0  0  0  0  0  0
   -0.6465   -3.5370    2.1222 H   0  0  0  0  0  0  0  0  0  0  0  0
   -1.5741   -0.3375    4.9301 H   0  0  0  0  0  0  0  0  0  0  0  0
   -3.0016    1.0444    6.3737 H   0  0  0  0  0  0  0  0  0  0  0  0
   -5.3393    1.5343    5.6849 H   0  0  0  0  0  0  0  0  0  0  0  0
   -6.2108    0.6720    3.5656 H   0  0  0  0  0  0  0  0  0  0  0  0
   -6.7862   -1.4180    2.7147 H   0  0  0  0  0  0  0  0  0  0  0  0
   -5.8906   -2.6521    1.8304 H   0  0  0  0  0  0  0  0  0  0  0  0
   -7.4663   -0.2904    0.6603 H   0  0  0  0  0  0  0  0  0  0  0  0
   -7.9168   -1.9996    0.5927 H   0  0  0  0  0  0  0  0  0  0  0  0
  1  2  1  0  0  0  0
  1 36  1  0  0  0  0
  1 37  1  0  0  0  0
  1 38  1  0  0  0  0
  2  3  1  0  0  0  0
  2 35  1  0  0  0  0
  3  4  1  0  0  0  0
  3 39  1  0  0  0  0
  3 40  1  0  0  0  0
  4  5  1  0  0  0  0
  4 41  1  0  0  0  0
  4 42  1  0  0  0  0
  5  6  1  0  0  0  0
  5 34  1  0  0  0  0
  6  7  2  0  0  0  0
  6 33  1  0  0  0  0
  7  8  1  0  0  0  0
  7 30  1  0  0  0  0
  8  9  1  0  0  0  0
  8 43  1  0  0  0  0
  9 10  2  0  0  0  0
  9 29  1  0  0  0  0
 10 11  1  0  0  0  0
 10 44  1  0  0  0  0
 11 12  1  0  0  0  0
 11 26  2  0  0  0  0
 12 13  1  0  0  0  0
 12 45  1  0  0  0  0
 12 46  1  0  0  0  0
 13 14  2  0  0  0  0
 13 15  1  0  0  0  0
 15 16  1  0  0  0  0
 15 47  1  0  0  0  0
 16 17  2  0  0  0  0
 16 25  1  0  0  0  0
 17 18  1  0  0  0  0
 17 48  1  0  0  0  0
 18 19  2  0  0  0  0
 19 20  1  0  0  0  0
 19 49  1  0  0  0  0
 20 21  2  0  0  0  0
 20 25  1  0  0  0  0
 21 22  1  0  0  0  0
 21 50  1  0  0  0  0
 22 23  2  0  0  0  0
 22 51  1  0  0  0  0
 23 24  1  0  0  0  0
 23 52  1  0  0  0  0
 24 25  2  0  0  0  0
 24 53  1  0  0  0  0
 26 27  1  0  0  0  0
 26 54  1  0  0  0  0
 27 28  1  0  0  0  0
 27 29  2  0  0  0  0
 29 55  1  0  0  0  0
 30 31  2  0  0  0  0
 30 56  1  0  0  0  0
 31 32  1  0  0  0  0
 31 57  1  0  0  0  0
 32 33  2  0  0  0  0
 32 58  1  0  0  0  0
 33 59  1  0  0  0  0
 34 35  1  0  0  0  0
 34 60  1  0  0  0  0
 34 61  1  0  0  0  0
 35 62  1  0  0  0  0
 35 63  1  0  0  0  0
M  END
$$$$
