
 OpenBabel07202414183D

 58 63  0  0  1  0  0  0  0  0999 V2000
    0.9228   -0.1136    0.2087 Cl  0  0  0  0  0  0  0  0  0  0  0  0
    2.6455   -0.0851    0.2402 C   0  0  0  0  0  0  0  0  0  0  0  0
    3.3553   -1.2753    0.1440 C   0  0  0  0  0  0  0  0  0  0  0  0
    4.7497   -1.2434    0.1210 C   0  0  0  0  0  0  0  0  0  0  0  0
    5.4424   -0.0223    0.1895 C   0  0  0  0  0  0  0  0  0  0  0  0
    4.7207    1.1902    0.2851 C   0  0  0  0  0  0  0  0  0  0  0  0
    3.3136    1.1360    0.3260 C   0  0  0  0  0  0  0  0  0  0  0  0
    5.4493    2.5432    0.2966 C   0  0  1  0  0  0  0  0  0  0  0  0
    6.9746    2.3931    0.0816 C   0  0  0  0  0  0  0  0  0  0  0  0
    7.5843    1.1705    0.6767 N   0  0  0  0  0  0  0  0  0  0  0  0
    7.8179    1.1815    2.3699 S   0  0  0  0  0  0  0  0  0  0  0  0
    8.1807    2.5304    2.7156 O   0  0  0  0  0  0  0  0  0  0  0  0
    6.7224    0.4726    2.9621 O   0  0  0  0  0  0  0  0  0  0  0  0
    9.3100    0.2034    2.5396 C   0  0  0  0  0  0  0  0  0  0  0  0
    9.6105    0.1505    4.0238 C   0  0  0  0  0  0  0  0  0  0  0  0
    8.6687   -0.5805    4.8492 C   0  0  0  0  0  0  0  0  0  0  0  0
    7.9740   -1.2039    5.5375 N   0  0  0  0  0  0  0  0  0  0  0  0
   11.0727   -0.0331    4.4222 C   0  0  0  0  0  0  0  0  0  0  0  0
   10.3958    1.2801    4.6723 C   0  0  0  0  0  0  0  0  0  0  0  0
    6.9513   -0.0459    0.1266 C   0  0  0  0  0  0  0  0  0  0  0  0
    4.9447    3.4031   -0.8668 C   0  0  0  0  0  0  0  0  0  0  0  0
    4.2889    4.6167   -0.2573 C   0  0  0  0  0  0  0  0  0  0  0  0
    4.4913    4.5852    1.1502 N   0  0  0  0  0  0  0  0  0  0  0  0
    4.1983    5.7384    1.9759 C   0  0  0  0  0  0  0  0  0  0  0  0
    4.7738    5.8447    3.2456 C   0  0  0  0  0  0  0  0  0  0  0  0
    4.8599    7.0013    3.9534 N   0  0  0  0  0  0  0  0  0  0  0  0
    4.1932    8.0580    3.4634 C   0  0  0  0  0  0  0  0  0  0  0  0
    3.3224    7.9952    2.3871 C   0  0  0  0  0  0  0  0  0  0  0  0
    2.3895    9.0329    2.1722 C   0  0  0  0  0  0  0  0  0  0  0  0
    1.4713    8.9751    1.1303 C   0  0  0  0  0  0  0  0  0  0  0  0
    1.5823    7.9566    0.2076 C   0  0  0  0  0  0  0  0  0  0  0  0
    2.5308    6.9505    0.4000 C   0  0  0  0  0  0  0  0  0  0  0  0
    3.3711    6.8533    1.5511 C   0  0  0  0  0  0  0  0  0  0  0  0
    5.1185    3.3865    1.5495 C   0  0  0  0  0  0  0  0  0  0  0  0
    5.3184    3.0423    2.7022 O   0  0  0  0  0  0  0  0  0  0  0  0
    2.8370   -2.2254    0.0865 H   0  0  0  0  0  0  0  0  0  0  0  0
    5.2952   -2.1820    0.0507 H   0  0  0  0  0  0  0  0  0  0  0  0
    2.7267    2.0470    0.4092 H   0  0  0  0  0  0  0  0  0  0  0  0
    7.5332    3.2935    0.3705 H   0  0  0  0  0  0  0  0  0  0  0  0
    7.1722    2.2848   -0.9981 H   0  0  0  0  0  0  0  0  0  0  0  0
   10.1013    0.7131    1.9825 H   0  0  0  0  0  0  0  0  0  0  0  0
    9.1413   -0.7908    2.1285 H   0  0  0  0  0  0  0  0  0  0  0  0
   11.8317   -0.0736    3.6499 H   0  0  0  0  0  0  0  0  0  0  0  0
   11.3053   -0.6510    5.2864 H   0  0  0  0  0  0  0  0  0  0  0  0
   10.6865    2.1300    4.0654 H   0  0  0  0  0  0  0  0  0  0  0  0
   10.1605    1.5508    5.6977 H   0  0  0  0  0  0  0  0  0  0  0  0
    7.3490   -0.9324    0.6248 H   0  0  0  0  0  0  0  0  0  0  0  0
    7.2483   -0.1334   -0.9305 H   0  0  0  0  0  0  0  0  0  0  0  0
    4.2136    2.8913   -1.5146 H   0  0  0  0  0  0  0  0  0  0  0  0
    5.7321    3.7387   -1.5483 H   0  0  0  0  0  0  0  0  0  0  0  0
    3.2283    4.5202   -0.4606 H   0  0  0  0  0  0  0  0  0  0  0  0
    4.7239    5.5306   -0.6758 H   0  0  0  0  0  0  0  0  0  0  0  0
    5.2365    5.0093    3.7604 H   0  0  0  0  0  0  0  0  0  0  0  0
    4.3738    8.9895    3.9941 H   0  0  0  0  0  0  0  0  0  0  0  0
    2.3236    9.8607    2.8729 H   0  0  0  0  0  0  0  0  0  0  0  0
    0.6842    9.7168    1.0358 H   0  0  0  0  0  0  0  0  0  0  0  0
    0.9155    7.9113   -0.6509 H   0  0  0  0  0  0  0  0  0  0  0  0
    2.5312    6.2226   -0.3899 H   0  0  0  0  0  0  0  0  0  0  0  0
  1  2  1  0  0  0  0
  2  3  1  0  0  0  0
  2  7  2  0  0  0  0
  3  4  2  0  0  0  0
  3 36  1  0  0  0  0
  4  5  1  0  0  0  0
  4 37  1  0  0  0  0
  5  6  2  0  0  0  0
  5 20  1  0  0  0  0
  6  7  1  0  0  0  0
  7 38  1  0  0  0  0
  8  6  1  1  0  0  0
  8  9  1  0  0  0  0
  8 21  1  0  0  0  0
  8 34  1  0  0  0  0
  9 10  1  0  0  0  0
  9 39  1  0  0  0  0
  9 40  1  0  0  0  0
 10 11  1  0  0  0  0
 10 20  1  0  0  0  0
 11 12  2  0  0  0  0
 11 13  2  0  0  0  0
 11 14  1  0  0  0  0
 14 15  1  0  0  0  0
 14 41  1  0  0  0  0
 14 42  1  0  0  0  0
 15 16  1  0  0  0  0
 15 18  1  0  0  0  0
 15 19  1  0  0  0  0
 16 17  3  0  0  0  0
 18 19  1  0  0  0  0
 18 43  1  0  0  0  0
 18 44  1  0  0  0  0
 19 45  1  0  0  0  0
 19 46  1  0  0  0  0
 20 47  1  0  0  0  0
 20 48  1  0  0  0  0
 21 22  1  0  0  0  0
 21 49  1  0  0  0  0
 21 50  1  0  0  0  0
 22 23  1  0  0  0  0
 22 51  1  0  0  0  0
 22 52  1  0  0  0  0
 23 24  1  0  0  0  0
 23 34  1  0  0  0  0
 24 25  1  0  0  0  0
 24 33  2  0  0  0  0
 25 26  2  0  0  0  0
 25 53  1  0  0  0  0
 26 27  1  0  0  0  0
 27 28  2  0  0  0  0
 27 54  1  0  0  0  0
 28 29  1  0  0  0  0
 28 33  1  0  0  0  0
 29 30  2  0  0  0  0
 29 55  1  0  0  0  0
 30 31  1  0  0  0  0
 30 56  1  0  0  0  0
 31 32  2  0  0  0  0
 31 57  1  0  0  0  0
 32 33  1  0  0  0  0
 32 58  1  0  0  0  0
 34 35  2  0  0  0  0
M  END
$$$$
