
 OpenBabel07202414163D

 34 36  0  0  0  0  0  0  0  0999 V2000
    1.7537    2.4668    0.7727 C   0  0  0  0  0  0  0  0  0  0  0  0
    1.0927    1.3710   -0.0159 C   0  0  0  0  0  0  0  0  0  0  0  0
    1.8889    0.2849   -0.4198 C   0  0  0  0  0  0  0  0  0  0  0  0
    1.3135   -0.7567   -1.1275 C   0  0  0  0  0  0  0  0  0  0  0  0
    0.0080   -0.8086   -1.4357 N   0  0  0  0  0  0  0  0  0  0  0  0
   -0.7501    0.2456   -1.0420 C   0  0  0  0  0  0  0  0  0  0  0  0
   -0.2743    1.3651   -0.3502 C   0  0  0  0  0  0  0  0  0  0  0  0
   -1.1132    2.4509    0.0151 N   0  0  0  0  0  0  0  0  0  0  0  0
   -2.3778    2.6977   -0.5022 C   0  0  0  0  0  0  0  0  0  0  0  0
   -2.9281    2.0501   -1.3898 O   0  0  0  0  0  0  0  0  0  0  0  0
   -3.0759    3.8986    0.1109 C   0  0  0  0  0  0  0  0  0  0  0  0
   -2.7850    5.2038   -0.5925 C   0  0  0  0  0  0  0  0  0  0  0  0
   -3.0194    5.3436   -1.9728 C   0  0  0  0  0  0  0  0  0  0  0  0
   -2.8157    6.5614   -2.6380 C   0  0  0  0  0  0  0  0  0  0  0  0
   -2.3812    7.6388   -1.8654 C   0  0  0  0  0  0  0  0  0  0  0  0
   -2.1442    7.5440   -0.5005 C   0  0  0  0  0  0  0  0  0  0  0  0
   -2.3456    6.3143    0.1499 C   0  0  0  0  0  0  0  0  0  0  0  0
   -1.7395    8.8426   -0.1202 C   0  0  0  0  0  0  0  0  0  0  0  0
   -1.7131    9.6975   -1.1458 N   0  0  0  0  0  0  0  0  0  0  0  0
   -2.1094    8.9437   -2.1884 N   0  0  0  0  0  0  0  0  0  0  0  0
    2.8439    2.4312    0.6591 H   0  0  0  0  0  0  0  0  0  0  0  0
    1.5226    2.3565    1.8364 H   0  0  0  0  0  0  0  0  0  0  0  0
    1.4379    3.4554    0.4268 H   0  0  0  0  0  0  0  0  0  0  0  0
    2.9510    0.2487   -0.1971 H   0  0  0  0  0  0  0  0  0  0  0  0
    1.9051   -1.6000   -1.4717 H   0  0  0  0  0  0  0  0  0  0  0  0
   -1.7975    0.1253   -1.2984 H   0  0  0  0  0  0  0  0  0  0  0  0
   -0.7078    3.1728    0.5959 H   0  0  0  0  0  0  0  0  0  0  0  0
   -2.8156    3.9586    1.1740 H   0  0  0  0  0  0  0  0  0  0  0  0
   -4.1580    3.7140    0.0760 H   0  0  0  0  0  0  0  0  0  0  0  0
   -3.3801    4.4944   -2.5512 H   0  0  0  0  0  0  0  0  0  0  0  0
   -3.0048    6.6533   -3.7039 H   0  0  0  0  0  0  0  0  0  0  0  0
   -2.1813    6.2400    1.2217 H   0  0  0  0  0  0  0  0  0  0  0  0
   -1.4656    9.1974    0.8647 H   0  0  0  0  0  0  0  0  0  0  0  0
   -2.1822    9.3830   -3.0988 H   0  0  0  0  0  0  0  0  0  0  0  0
  1  2  1  0  0  0  0
  1 21  1  0  0  0  0
  1 22  1  0  0  0  0
  1 23  1  0  0  0  0
  2  3  1  0  0  0  0
  2  7  2  0  0  0  0
  3  4  2  0  0  0  0
  3 24  1  0  0  0  0
  4  5  1  0  0  0  0
  4 25  1  0  0  0  0
  5  6  2  0  0  0  0
  6  7  1  0  0  0  0
  6 26  1  0  0  0  0
  7  8  1  0  0  0  0
  8  9  1  0  0  0  0
  8 27  1  0  0  0  0
  9 10  2  0  0  0  0
  9 11  1  0  0  0  0
 11 12  1  0  0  0  0
 11 28  1  0  0  0  0
 11 29  1  0  0  0  0
 12 13  1  0  0  0  0
 12 17  2  0  0  0  0
 13 14  2  0  0  0  0
 13 30  1  0  0  0  0
 14 15  1  0  0  0  0
 14 31  1  0  0  0  0
 15 16  2  0  0  0  0
 15 20  1  0  0  0  0
 16 17  1  0  0  0  0
 16 18  1  0  0  0  0
 17 32  1  0  0  0  0
 18 19  2  0  0  0  0
 18 33  1  0  0  0  0
 19 20  1  0  0  0  0
 20 34  1  0  0  0  0
M  END
$$$$
