
 OpenBabel07202414143D

 53 56  0  0  1  0  0  0  0  0999 V2000
    7.7252    0.9324    0.1101 C   0  0  0  0  0  0  0  0  0  0  0  0
    6.6200    0.7586   -0.8194 N   0  0  0  0  0  0  0  0  0  0  0  0
    5.5492   -0.1036   -0.2982 C   0  0  1  0  0  0  0  0  0  0  0  0
    4.8225    0.5315    0.8931 C   0  0  0  0  0  0  0  0  0  0  0  0
    4.5064   -0.3756   -1.4091 C   0  0  0  0  0  0  0  0  0  0  0  0
    4.9802   -1.1038   -2.5952 N   0  0  0  0  0  0  0  0  0  0  0  0
    5.5734   -2.4319   -2.4593 C   0  0  0  0  0  0  0  0  0  0  0  0
    4.7424   -3.5326   -3.1123 C   0  0  1  0  0  0  0  0  0  0  0  0
    3.6378   -3.9845   -2.1472 C   0  0  0  0  0  0  0  0  0  0  0  0
    3.8627   -4.8750   -1.3346 O   0  0  0  0  0  0  0  0  0  0  0  0
    2.4596   -3.2696   -2.2439 N   0  0  0  0  0  0  0  0  0  0  0  0
    1.2152   -3.5445   -1.6245 C   0  0  0  0  0  0  0  0  0  0  0  0
    1.0148   -4.6267   -0.7674 C   0  0  0  0  0  0  0  0  0  0  0  0
   -0.1904   -5.0058   -0.2835 N   0  0  0  0  0  0  0  0  0  0  0  0
   -1.2487   -4.2514   -0.6442 C   0  0  0  0  0  0  0  0  0  0  0  0
   -1.1700   -3.0937   -1.4171 C   0  0  0  0  0  0  0  0  0  0  0  0
   -2.3140   -2.3159   -1.6765 C   0  0  0  0  0  0  0  0  0  0  0  0
   -2.2260   -1.1472   -2.4283 C   0  0  0  0  0  0  0  0  0  0  0  0
   -1.0005   -0.7556   -2.9468 C   0  0  0  0  0  0  0  0  0  0  0  0
    0.1395   -1.5281   -2.7063 C   0  0  0  0  0  0  0  0  0  0  0  0
    0.0930   -2.7175   -1.9299 C   0  0  0  0  0  0  0  0  0  0  0  0
    4.2432   -3.0984   -4.4766 C   0  0  0  0  0  0  0  0  0  0  0  0
    3.7459   -4.0568   -5.3787 C   0  0  0  0  0  0  0  0  0  0  0  0
    3.1548   -3.6556   -6.5796 C   0  0  0  0  0  0  0  0  0  0  0  0
    2.4993   -4.8352   -7.6447 Cl  0  0  0  0  0  0  0  0  0  0  0  0
    3.0606   -2.3049   -6.9037 C   0  0  0  0  0  0  0  0  0  0  0  0
    3.5775   -1.3466   -6.0314 C   0  0  0  0  0  0  0  0  0  0  0  0
    4.1725   -1.7349   -4.8218 C   0  0  0  0  0  0  0  0  0  0  0  0
    4.5229   -0.6708   -3.8362 C   0  0  0  0  0  0  0  0  0  0  0  0
    4.2585    0.4971   -4.0959 O   0  0  0  0  0  0  0  0  0  0  0  0
    8.5402    1.4646   -0.3900 H   0  0  0  0  0  0  0  0  0  0  0  0
    8.1171   -0.0262    0.4642 H   0  0  0  0  0  0  0  0  0  0  0  0
    7.4319    1.5424    0.9699 H   0  0  0  0  0  0  0  0  0  0  0  0
    6.9597    0.3657   -1.6988 H   0  0  0  0  0  0  0  0  0  0  0  0
    5.9798   -1.0563    0.0294 H   0  0  0  0  0  0  0  0  0  0  0  0
    4.3563    1.4836    0.6157 H   0  0  0  0  0  0  0  0  0  0  0  0
    5.4953    0.7120    1.7362 H   0  0  0  0  0  0  0  0  0  0  0  0
    4.0307   -0.1349    1.2545 H   0  0  0  0  0  0  0  0  0  0  0  0
    4.0596    0.5762   -1.7240 H   0  0  0  0  0  0  0  0  0  0  0  0
    3.6821   -0.9728   -1.0011 H   0  0  0  0  0  0  0  0  0  0  0  0
    5.7815   -2.6543   -1.4093 H   0  0  0  0  0  0  0  0  0  0  0  0
    6.5418   -2.3734   -2.9750 H   0  0  0  0  0  0  0  0  0  0  0  0
    5.3933   -4.4063   -3.2593 H   0  0  0  0  0  0  0  0  0  0  0  0
    2.4452   -2.5238   -2.9218 H   0  0  0  0  0  0  0  0  0  0  0  0
    1.8263   -5.2620   -0.4293 H   0  0  0  0  0  0  0  0  0  0  0  0
   -2.2027   -4.6159   -0.2700 H   0  0  0  0  0  0  0  0  0  0  0  0
   -3.2821   -2.6077   -1.2737 H   0  0  0  0  0  0  0  0  0  0  0  0
   -3.1106   -0.5391   -2.6002 H   0  0  0  0  0  0  0  0  0  0  0  0
   -0.9220    0.1581   -3.5317 H   0  0  0  0  0  0  0  0  0  0  0  0
    1.0696   -1.1522   -3.1220 H   0  0  0  0  0  0  0  0  0  0  0  0
    3.7815   -5.1190   -5.1332 H   0  0  0  0  0  0  0  0  0  0  0  0
    2.5680   -1.9883   -7.8200 H   0  0  0  0  0  0  0  0  0  0  0  0
    3.4721   -0.2898   -6.2767 H   0  0  0  0  0  0  0  0  0  0  0  0
  1  2  1  0  0  0  0
  1 31  1  0  0  0  0
  1 32  1  0  0  0  0
  1 33  1  0  0  0  0
  2  3  1  0  0  0  0
  2 34  1  0  0  0  0
  3  4  1  0  0  0  0
  3  5  1  0  0  0  0
  3 35  1  1  0  0  0
  4 36  1  0  0  0  0
  4 37  1  0  0  0  0
  4 38  1  0  0  0  0
  5  6  1  0  0  0  0
  5 39  1  0  0  0  0
  5 40  1  0  0  0  0
  6  7  1  0  0  0  0
  6 29  1  0  0  0  0
  7  8  1  0  0  0  0
  7 41  1  0  0  0  0
  7 42  1  0  0  0  0
  8  9  1  0  0  0  0
  8 22  1  0  0  0  0
  8 43  1  6  0  0  0
  9 10  2  0  0  0  0
  9 11  1  0  0  0  0
 11 12  1  0  0  0  0
 11 44  1  0  0  0  0
 12 13  1  0  0  0  0
 12 21  2  0  0  0  0
 13 14  2  0  0  0  0
 13 45  1  0  0  0  0
 14 15  1  0  0  0  0
 15 16  2  0  0  0  0
 15 46  1  0  0  0  0
 16 17  1  0  0  0  0
 16 21  1  0  0  0  0
 17 18  2  0  0  0  0
 17 47  1  0  0  0  0
 18 19  1  0  0  0  0
 18 48  1  0  0  0  0
 19 20  2  0  0  0  0
 19 49  1  0  0  0  0
 20 21  1  0  0  0  0
 20 50  1  0  0  0  0
 22 23  1  0  0  0  0
 22 28  2  0  0  0  0
 23 24  2  0  0  0  0
 23 51  1  0  0  0  0
 24 25  1  0  0  0  0
 24 26  1  0  0  0  0
 26 27  2  0  0  0  0
 26 52  1  0  0  0  0
 27 28  1  0  0  0  0
 27 53  1  0  0  0  0
 28 29  1  0  0  0  0
 29 30  2  0  0  0  0
M  END
$$$$
