
 OpenBabel07202414123D

 62 67  0  0  1  0  0  0  0  0999 V2000
    5.1235    3.0149    5.3812 C   0  0  0  0  0  0  0  0  0  0  0  0
    5.2790    1.5178    5.0944 C   0  0  0  0  0  0  0  0  0  0  0  0
    6.0203    0.8161    6.2335 C   0  0  0  0  0  0  0  0  0  0  0  0
    3.9762    0.8981    4.8597 N   0  0  0  0  0  0  0  0  0  0  0  0
    3.0685    0.9464    5.8679 N   0  0  0  0  0  0  0  0  0  0  0  0
    1.9594    0.4529    5.3306 C   0  0  0  0  0  0  0  0  0  0  0  0
    2.1626    0.0448    4.0110 C   0  0  0  0  0  0  0  0  0  0  0  0
    3.5148    0.2175    3.7491 C   0  0  0  0  0  0  0  0  0  0  0  0
    4.2722   -0.1429    2.5592 C   0  0  0  0  0  0  0  0  0  0  0  0
    5.1960    0.5562    2.1425 O   0  0  0  0  0  0  0  0  0  0  0  0
    3.9113   -1.3219    1.8868 N   0  0  0  0  0  0  0  0  0  0  0  0
    4.6230   -1.6720    0.6601 C   0  0  0  0  0  0  0  0  0  0  0  0
    3.8133   -2.5881   -0.2422 C   0  0  0  0  0  0  0  0  0  0  0  0
    4.1807   -2.7146   -1.5957 C   0  0  0  0  0  0  0  0  0  0  0  0
    3.4246   -3.4907   -2.4813 C   0  0  0  0  0  0  0  0  0  0  0  0
    2.3046   -4.1631   -2.0200 C   0  0  0  0  0  0  0  0  0  0  0  0
    1.3206   -5.0755   -3.0961 Cl  0  0  0  0  0  0  0  0  0  0  0  0
    1.9578   -4.0907   -0.6772 C   0  0  0  0  0  0  0  0  0  0  0  0
    2.7045   -3.3175    0.2355 C   0  0  0  0  0  0  0  0  0  0  0  0
    2.2248   -3.1733    1.6883 C   0  0  3  0  0  0  0  0  0  0  0  0
    1.9355   -4.5312    2.3703 C   0  0  0  0  0  0  0  0  0  0  0  0
    0.4281   -4.6547    2.4692 C   0  0  0  0  0  0  0  0  0  0  0  0
   -0.1110   -3.5592    1.7116 N   0  0  0  0  0  0  0  0  0  0  0  0
   -1.5083   -3.4553    1.4445 C   0  0  0  0  0  0  0  0  0  0  0  0
   -2.1975   -2.2789    1.7479 C   0  0  0  0  0  0  0  0  0  0  0  0
   -3.5427   -2.1432    1.6848 N   0  0  0  0  0  0  0  0  0  0  0  0
   -4.2325   -3.1994    1.2096 C   0  0  0  0  0  0  0  0  0  0  0  0
   -3.6581   -4.3768    0.7316 C   0  0  0  0  0  0  0  0  0  0  0  0
   -4.4490   -5.3561    0.1073 C   0  0  0  0  0  0  0  0  0  0  0  0
   -3.8772   -6.5068   -0.4261 C   0  0  0  0  0  0  0  0  0  0  0  0
   -2.5097   -6.6982   -0.3169 C   0  0  0  0  0  0  0  0  0  0  0  0
   -1.7196   -5.7286    0.3038 C   0  0  0  0  0  0  0  0  0  0  0  0
   -2.2587   -4.5311    0.8564 C   0  0  0  0  0  0  0  0  0  0  0  0
    0.8286   -2.5141    1.6371 C   0  0  0  0  0  0  0  0  0  0  0  0
    0.6027   -1.3403    1.3826 O   0  0  0  0  0  0  0  0  0  0  0  0
    3.2806   -2.4572    2.5449 C   0  0  0  0  0  0  0  0  0  0  0  0
    6.0945    3.5187    5.3401 H   0  0  0  0  0  0  0  0  0  0  0  0
    4.6988    3.1921    6.3765 H   0  0  0  0  0  0  0  0  0  0  0  0
    4.4612    3.4928    4.6506 H   0  0  0  0  0  0  0  0  0  0  0  0
    5.8736    1.4100    4.1861 H   0  0  0  0  0  0  0  0  0  0  0  0
    5.4951    0.9323    7.1889 H   0  0  0  0  0  0  0  0  0  0  0  0
    7.0267    1.2290    6.3539 H   0  0  0  0  0  0  0  0  0  0  0  0
    6.1114   -0.2575    6.0365 H   0  0  0  0  0  0  0  0  0  0  0  0
    1.0540    0.4068    5.9208 H   0  0  0  0  0  0  0  0  0  0  0  0
    1.4250   -0.3712    3.3468 H   0  0  0  0  0  0  0  0  0  0  0  0
    5.5473   -2.1913    0.9471 H   0  0  0  0  0  0  0  0  0  0  0  0
    4.9014   -0.7618    0.1172 H   0  0  0  0  0  0  0  0  0  0  0  0
    5.0476   -2.1814   -1.9810 H   0  0  0  0  0  0  0  0  0  0  0  0
    3.7012   -3.5484   -3.5301 H   0  0  0  0  0  0  0  0  0  0  0  0
    1.0622   -4.6102   -0.3579 H   0  0  0  0  0  0  0  0  0  0  0  0
    2.3491   -4.5840    3.3861 H   0  0  0  0  0  0  0  0  0  0  0  0
    2.3713   -5.3731    1.8222 H   0  0  0  0  0  0  0  0  0  0  0  0
    0.1092   -4.5187    3.5105 H   0  0  0  0  0  0  0  0  0  0  0  0
    0.0959   -5.6395    2.1508 H   0  0  0  0  0  0  0  0  0  0  0  0
   -1.6903   -1.3867    2.1012 H   0  0  0  0  0  0  0  0  0  0  0  0
   -5.3127   -3.0587    1.1956 H   0  0  0  0  0  0  0  0  0  0  0  0
   -5.5208   -5.2050   -0.0134 H   0  0  0  0  0  0  0  0  0  0  0  0
   -4.4914   -7.2350   -0.9498 H   0  0  0  0  0  0  0  0  0  0  0  0
   -2.0466   -7.5853   -0.7419 H   0  0  0  0  0  0  0  0  0  0  0  0
   -0.6494   -5.9057    0.2932 H   0  0  0  0  0  0  0  0  0  0  0  0
    4.1121   -3.1529    2.7436 H   0  0  0  0  0  0  0  0  0  0  0  0
    2.8935   -2.2216    3.5354 H   0  0  0  0  0  0  0  0  0  0  0  0
  1  2  1  0  0  0  0
  1 37  1  0  0  0  0
  1 38  1  0  0  0  0
  1 39  1  0  0  0  0
  2  3  1  0  0  0  0
  2  4  1  0  0  0  0
  2 40  1  0  0  0  0
  3 41  1  0  0  0  0
  3 42  1  0  0  0  0
  3 43  1  0  0  0  0
  4  5  1  0  0  0  0
  4  8  1  0  0  0  0
  5  6  2  0  0  0  0
  6  7  1  0  0  0  0
  6 44  1  0  0  0  0
  7  8  2  0  0  0  0
  7 45  1  0  0  0  0
  8  9  1  0  0  0  0
  9 10  2  0  0  0  0
  9 11  1  0  0  0  0
 11 12  1  0  0  0  0
 11 36  1  0  0  0  0
 12 13  1  0  0  0  0
 12 46  1  0  0  0  0
 12 47  1  0  0  0  0
 13 14  1  0  0  0  0
 13 19  2  0  0  0  0
 14 15  2  0  0  0  0
 14 48  1  0  0  0  0
 15 16  1  0  0  0  0
 15 49  1  0  0  0  0
 16 17  1  0  0  0  0
 16 18  2  0  0  0  0
 18 19  1  0  0  0  0
 18 50  1  0  0  0  0
 19 20  1  0  0  0  0
 20 21  1  0  0  0  0
 20 34  1  0  0  0  0
 20 36  1  0  0  0  0
 21 22  1  0  0  0  0
 21 51  1  0  0  0  0
 21 52  1  0  0  0  0
 22 23  1  0  0  0  0
 22 53  1  0  0  0  0
 22 54  1  0  0  0  0
 23 24  1  0  0  0  0
 23 34  1  0  0  0  0
 24 25  1  0  0  0  0
 24 33  2  0  0  0  0
 25 26  2  0  0  0  0
 25 55  1  0  0  0  0
 26 27  1  0  0  0  0
 27 28  2  0  0  0  0
 27 56  1  0  0  0  0
 28 29  1  0  0  0  0
 28 33  1  0  0  0  0
 29 30  2  0  0  0  0
 29 57  1  0  0  0  0
 30 31  1  0  0  0  0
 30 58  1  0  0  0  0
 31 32  2  0  0  0  0
 31 59  1  0  0  0  0
 32 33  1  0  0  0  0
 32 60  1  0  0  0  0
 34 35  2  0  0  0  0
 36 61  1  0  0  0  0
 36 62  1  0  0  0  0
M  END
$$$$
