
 OpenBabel07202414123D

 66 69  0  0  1  0  0  0  0  0999 V2000
    4.5261    1.6948   -0.1685 C   0  0  0  0  0  0  0  0  0  0  0  0
    3.1985    1.0759    0.3273 C   0  0  0  0  0  0  0  0  0  0  0  0
    2.3290    2.2416    0.8567 C   0  0  0  0  0  0  0  0  0  0  0  0
    2.4798    0.4629   -0.8923 C   0  0  0  0  0  0  0  0  0  0  0  0
    3.4195    0.0246    1.4343 C   0  0  0  0  0  0  0  0  0  0  0  0
    4.6898   -0.2669    1.9506 C   0  0  0  0  0  0  0  0  0  0  0  0
    4.8490   -1.0711    3.0880 C   0  0  0  0  0  0  0  0  0  0  0  0
    3.7520   -1.7012    3.7019 C   0  0  0  0  0  0  0  0  0  0  0  0
    3.9440   -2.4300    4.9298 N   0  0  0  0  0  0  0  0  0  0  0  0
    3.5076   -3.8774    5.0598 C   0  0  3  0  0  0  0  0  0  0  0  0
    2.0057   -4.0678    5.5184 C   0  0  0  0  0  0  0  0  0  0  0  0
    1.0486   -3.5165    4.9866 O   0  0  0  0  0  0  0  0  0  0  0  0
    1.8145   -4.9991    6.5370 N   0  0  0  0  0  0  0  0  0  0  0  0
    0.4782   -5.4341    6.9367 C   0  0  0  0  0  0  0  0  0  0  0  0
    0.4309   -5.7312    8.4348 C   0  0  0  0  0  0  0  0  0  0  0  0
   -0.9178   -6.2138    8.9021 C   0  0  0  0  0  0  0  0  0  0  0  0
   -1.8969   -5.3012    9.3241 C   0  0  0  0  0  0  0  0  0  0  0  0
   -3.1425   -5.7509    9.7727 C   0  0  0  0  0  0  0  0  0  0  0  0
   -3.4235   -7.1156    9.7970 C   0  0  0  0  0  0  0  0  0  0  0  0
   -2.4578   -8.0185    9.3704 C   0  0  0  0  0  0  0  0  0  0  0  0
   -2.7250   -9.3309    9.3935 F   0  0  0  0  0  0  0  0  0  0  0  0
   -1.2139   -7.5828    8.9233 C   0  0  0  0  0  0  0  0  0  0  0  0
    3.7935   -4.8513    3.9016 C   0  0  0  0  0  0  0  0  0  0  0  0
    4.4193   -4.5220    2.7024 C   0  0  0  0  0  0  0  0  0  0  0  0
    4.4755   -5.4332    1.6502 C   0  0  0  0  0  0  0  0  0  0  0  0
    3.9666   -6.6960    1.8483 C   0  0  0  0  0  0  0  0  0  0  0  0
    3.4814   -7.1189    3.0267 N   0  0  0  0  0  0  0  0  0  0  0  0
    3.4184   -6.1978    4.0184 C   0  0  0  0  0  0  0  0  0  0  0  0
    4.5275   -1.6737    6.0046 C   0  0  0  0  0  0  0  0  0  0  0  0
    4.9367   -0.5287    5.8535 O   0  0  0  0  0  0  0  0  0  0  0  0
    4.6577   -2.2805    7.3201 C   0  0  0  0  0  0  0  0  0  0  0  0
    5.5315   -2.0046    8.3578 C   0  0  0  0  0  0  0  0  0  0  0  0
    5.2885   -2.8383    9.4199 N   0  0  0  0  0  0  0  0  0  0  0  0
    4.2541   -3.5413    9.0243 C   0  0  0  0  0  0  0  0  0  0  0  0
    3.8045   -3.2521    7.7787 O   0  0  0  0  0  0  0  0  0  0  0  0
    2.5076   -1.5404    3.1010 C   0  0  0  0  0  0  0  0  0  0  0  0
    2.3382   -0.6575    2.0181 C   0  0  0  0  0  0  0  0  0  0  0  0
    4.3603    2.4419   -0.9523 H   0  0  0  0  0  0  0  0  0  0  0  0
    5.1926    0.9291   -0.5847 H   0  0  0  0  0  0  0  0  0  0  0  0
    5.0589    2.1984    0.6480 H   0  0  0  0  0  0  0  0  0  0  0  0
    2.1124    2.9623    0.0573 H   0  0  0  0  0  0  0  0  0  0  0  0
    2.8361    2.7884    1.6598 H   0  0  0  0  0  0  0  0  0  0  0  0
    1.3643    1.8988    1.2463 H   0  0  0  0  0  0  0  0  0  0  0  0
    2.2562    1.2338   -1.6411 H   0  0  0  0  0  0  0  0  0  0  0  0
    1.5255   -0.0010   -0.6213 H   0  0  0  0  0  0  0  0  0  0  0  0
    3.0968   -0.2999   -1.3786 H   0  0  0  0  0  0  0  0  0  0  0  0
    5.5927    0.1489    1.5119 H   0  0  0  0  0  0  0  0  0  0  0  0
    5.8559   -1.2133    3.4752 H   0  0  0  0  0  0  0  0  0  0  0  0
    4.1417   -4.2940    5.8468 H   0  0  0  0  0  0  0  0  0  0  0  0
    2.5832   -5.5938    6.8006 H   0  0  0  0  0  0  0  0  0  0  0  0
    0.2545   -6.3390    6.3552 H   0  0  0  0  0  0  0  0  0  0  0  0
   -0.2650   -4.6792    6.6622 H   0  0  0  0  0  0  0  0  0  0  0  0
    0.7138   -4.8335    8.9990 H   0  0  0  0  0  0  0  0  0  0  0  0
    1.1894   -6.4833    8.6885 H   0  0  0  0  0  0  0  0  0  0  0  0
   -1.6946   -4.2314    9.3131 H   0  0  0  0  0  0  0  0  0  0  0  0
   -3.8920   -5.0362   10.1046 H   0  0  0  0  0  0  0  0  0  0  0  0
   -4.3848   -7.4801   10.1442 H   0  0  0  0  0  0  0  0  0  0  0  0
   -0.4858   -8.3225    8.6041 H   0  0  0  0  0  0  0  0  0  0  0  0
    4.8526   -3.5471    2.5252 H   0  0  0  0  0  0  0  0  0  0  0  0
    4.8910   -5.1365    0.6968 H   0  0  0  0  0  0  0  0  0  0  0  0
    3.9387   -7.4219    1.0404 H   0  0  0  0  0  0  0  0  0  0  0  0
    3.0229   -6.6185    4.9366 H   0  0  0  0  0  0  0  0  0  0  0  0
    6.3131   -1.2592    8.3861 H   0  0  0  0  0  0  0  0  0  0  0  0
    3.7286   -4.3216    9.5600 H   0  0  0  0  0  0  0  0  0  0  0  0
    1.6221   -2.0148    3.4961 H   0  0  0  0  0  0  0  0  0  0  0  0
    1.3226   -0.4865    1.6662 H   0  0  0  0  0  0  0  0  0  0  0  0
  1  2  1  0  0  0  0
  1 38  1  0  0  0  0
  1 39  1  0  0  0  0
  1 40  1  0  0  0  0
  2  3  1  0  0  0  0
  2  4  1  0  0  0  0
  2  5  1  0  0  0  0
  3 41  1  0  0  0  0
  3 42  1  0  0  0  0
  3 43  1  0  0  0  0
  4 44  1  0  0  0  0
  4 45  1  0  0  0  0
  4 46  1  0  0  0  0
  5  6  1  0  0  0  0
  5 37  2  0  0  0  0
  6  7  2  0  0  0  0
  6 47  1  0  0  0  0
  7  8  1  0  0  0  0
  7 48  1  0  0  0  0
  8  9  1  0  0  0  0
  8 36  2  0  0  0  0
  9 10  1  0  0  0  0
  9 29  1  0  0  0  0
 10 11  1  0  0  0  0
 10 23  1  0  0  0  0
 10 49  1  0  0  0  0
 11 12  2  0  0  0  0
 11 13  1  0  0  0  0
 13 14  1  0  0  0  0
 13 50  1  0  0  0  0
 14 15  1  0  0  0  0
 14 51  1  0  0  0  0
 14 52  1  0  0  0  0
 15 16  1  0  0  0  0
 15 53  1  0  0  0  0
 15 54  1  0  0  0  0
 16 17  1  0  0  0  0
 16 22  2  0  0  0  0
 17 18  2  0  0  0  0
 17 55  1  0  0  0  0
 18 19  1  0  0  0  0
 18 56  1  0  0  0  0
 19 20  2  0  0  0  0
 19 57  1  0  0  0  0
 20 21  1  0  0  0  0
 20 22  1  0  0  0  0
 22 58  1  0  0  0  0
 23 24  1  0  0  0  0
 23 28  2  0  0  0  0
 24 25  2  0  0  0  0
 24 59  1  0  0  0  0
 25 26  1  0  0  0  0
 25 60  1  0  0  0  0
 26 27  2  0  0  0  0
 26 61  1  0  0  0  0
 27 28  1  0  0  0  0
 28 62  1  0  0  0  0
 29 30  2  0  0  0  0
 29 31  1  0  0  0  0
 31 32  2  0  0  0  0
 31 35  1  0  0  0  0
 32 33  1  0  0  0  0
 32 63  1  0  0  0  0
 33 34  2  0  0  0  0
 34 35  1  0  0  0  0
 34 64  1  0  0  0  0
 36 37  1  0  0  0  0
 36 65  1  0  0  0  0
 37 66  1  0  0  0  0
M  END
$$$$
