
 OpenBabel07202414173D

 40 44  0  0  1  0  0  0  0  0999 V2000
    1.0014    0.3327   -0.3009 Cl  0  0  0  0  0  0  0  0  0  0  0  0
    2.7156    0.1809   -0.2382 C   0  0  0  0  0  0  0  0  0  0  0  0
    3.5025    1.3244   -0.0901 C   0  0  0  0  0  0  0  0  0  0  0  0
    4.8777    1.1974    0.0886 C   0  0  0  0  0  0  0  0  0  0  0  0
    5.4320   -0.0760    0.1148 C   0  0  0  0  0  0  0  0  0  0  0  0
    4.6819   -1.2456   -0.1365 C   0  0  0  0  0  0  0  0  0  0  0  0
    3.2963   -1.0913   -0.2849 C   0  0  0  0  0  0  0  0  0  0  0  0
    5.5190   -2.6033   -0.0339 C   0  0  3  0  0  0  0  0  0  0  0  0
    4.7194   -3.8458   -0.5522 C   0  0  0  0  0  0  0  0  0  0  0  0
    4.7681   -4.2474   -1.7155 O   0  0  0  0  0  0  0  0  0  0  0  0
    3.9603   -4.4229    0.4390 N   0  0  0  0  0  0  0  0  0  0  0  0
    3.0889   -5.5308    0.3849 C   0  0  0  0  0  0  0  0  0  0  0  0
    2.8644   -6.2568   -0.7849 C   0  0  0  0  0  0  0  0  0  0  0  0
    2.0518   -7.3315   -0.8700 N   0  0  0  0  0  0  0  0  0  0  0  0
    1.4495   -7.7237    0.2718 C   0  0  0  0  0  0  0  0  0  0  0  0
    1.6049   -7.0967    1.5071 C   0  0  0  0  0  0  0  0  0  0  0  0
    0.9543   -7.6171    2.6404 C   0  0  0  0  0  0  0  0  0  0  0  0
    1.0960   -7.0198    3.8876 C   0  0  0  0  0  0  0  0  0  0  0  0
    1.8629   -5.8741    4.0098 C   0  0  0  0  0  0  0  0  0  0  0  0
    2.5042   -5.3352    2.8894 C   0  0  0  0  0  0  0  0  0  0  0  0
    3.3648   -3.8604    3.2095 Cl  0  0  0  0  0  0  0  0  0  0  0  0
    2.4270   -5.9452    1.5920 C   0  0  0  0  0  0  0  0  0  0  0  0
    7.0051   -2.4930   -0.5800 C   0  0  0  0  0  0  0  0  0  0  0  0
    7.2208   -1.5993    0.6708 C   0  0  3  0  0  0  0  0  0  0  0  0
    6.7565   -0.2184    0.5072 O   0  0  0  0  0  0  0  0  0  0  0  0
    6.2420   -2.6074    1.3751 C   0  0  0  0  0  0  0  0  0  0  0  0
    3.0447    2.3096   -0.0720 H   0  0  0  0  0  0  0  0  0  0  0  0
    5.4997    2.0720    0.2504 H   0  0  0  0  0  0  0  0  0  0  0  0
    2.6544   -1.9631   -0.3866 H   0  0  0  0  0  0  0  0  0  0  0  0
    4.0186   -3.9726    1.3450 H   0  0  0  0  0  0  0  0  0  0  0  0
    3.3227   -5.9949   -1.7355 H   0  0  0  0  0  0  0  0  0  0  0  0
    0.8090   -8.5954    0.1534 H   0  0  0  0  0  0  0  0  0  0  0  0
    0.3339   -8.5091    2.5591 H   0  0  0  0  0  0  0  0  0  0  0  0
    0.6032   -7.4401    4.7606 H   0  0  0  0  0  0  0  0  0  0  0  0
    1.9608   -5.3948    4.9813 H   0  0  0  0  0  0  0  0  0  0  0  0
    7.1394   -2.0018   -1.5464 H   0  0  0  0  0  0  0  0  0  0  0  0
    7.5767   -3.4300   -0.5742 H   0  0  0  0  0  0  0  0  0  0  0  0
    8.2341   -1.6051    1.0827 H   0  0  0  0  0  0  0  0  0  0  0  0
    5.6760   -2.1892    2.2138 H   0  0  0  0  0  0  0  0  0  0  0  0
    6.6778   -3.5630    1.6858 H   0  0  0  0  0  0  0  0  0  0  0  0
  1  2  1  0  0  0  0
  2  3  1  0  0  0  0
  2  7  2  0  0  0  0
  3  4  2  0  0  0  0
  3 27  1  0  0  0  0
  4  5  1  0  0  0  0
  4 28  1  0  0  0  0
  5  6  2  0  0  0  0
  5 25  1  0  0  0  0
  6  7  1  0  0  0  0
  6  8  1  0  0  0  0
  7 29  1  0  0  0  0
  8  9  1  0  0  0  0
  8 23  1  0  0  0  0
  8 26  1  0  0  0  0
  9 10  2  0  0  0  0
  9 11  1  0  0  0  0
 11 12  1  0  0  0  0
 11 30  1  0  0  0  0
 12 13  1  0  0  0  0
 12 22  2  0  0  0  0
 13 14  2  0  0  0  0
 13 31  1  0  0  0  0
 14 15  1  0  0  0  0
 15 16  2  0  0  0  0
 15 32  1  0  0  0  0
 16 17  1  0  0  0  0
 16 22  1  0  0  0  0
 17 18  2  0  0  0  0
 17 33  1  0  0  0  0
 18 19  1  0  0  0  0
 18 34  1  0  0  0  0
 19 20  2  0  0  0  0
 19 35  1  0  0  0  0
 20 21  1  0  0  0  0
 20 22  1  0  0  0  0
 23 24  1  0  0  0  0
 23 36  1  0  0  0  0
 23 37  1  0  0  0  0
 24 25  1  0  0  0  0
 24 26  1  0  0  0  0
 24 38  1  0  0  0  0
 26 39  1  0  0  0  0
 26 40  1  0  0  0  0
M  END
$$$$
