
 OpenBabel07202414123D

 46 48  0  0  1  0  0  0  0  0999 V2000
    0.8533   -0.0733   -0.0876 C   0  0  0  0  0  0  0  0  0  0  0  0
    2.4000   -0.0205    0.0349 C   0  0  3  0  0  0  0  0  0  0  0  0
    2.8284    0.3436    1.4007 N   0  0  0  0  0  0  0  0  0  0  0  0
    2.3080   -0.1428    2.5789 C   0  0  0  0  0  0  0  0  0  0  0  0
    1.4018   -0.9657    2.6245 O   0  0  0  0  0  0  0  0  0  0  0  0
    2.9710    0.4227    3.8393 C   0  0  0  0  0  0  0  0  0  0  0  0
    4.4285    0.5210    3.6465 N   0  0  0  0  0  0  0  0  0  0  0  0
    2.8938   -1.4723   -0.3667 C   0  0  0  0  0  0  0  0  0  0  0  0
    3.2682   -1.7433   -1.5097 O   0  0  0  0  0  0  0  0  0  0  0  0
    2.6801   -2.4623    0.5831 N   0  0  0  0  0  0  0  0  0  0  0  0
    2.8942   -3.8334    0.2836 C   0  0  0  0  0  0  0  0  0  0  0  0
    4.0577   -4.2512   -0.3662 C   0  0  0  0  0  0  0  0  0  0  0  0
    4.3448   -5.5368   -0.6792 N   0  0  0  0  0  0  0  0  0  0  0  0
    3.4065   -6.4493   -0.3585 C   0  0  0  0  0  0  0  0  0  0  0  0
    2.1922   -6.1563    0.2708 C   0  0  0  0  0  0  0  0  0  0  0  0
    1.2392   -7.1566    0.5254 C   0  0  0  0  0  0  0  0  0  0  0  0
    0.0152   -6.8408    1.1101 C   0  0  0  0  0  0  0  0  0  0  0  0
   -0.2671   -5.5246    1.4534 C   0  0  0  0  0  0  0  0  0  0  0  0
    0.6755   -4.5225    1.2150 C   0  0  0  0  0  0  0  0  0  0  0  0
    1.9277   -4.8102    0.6208 C   0  0  0  0  0  0  0  0  0  0  0  0
    2.9911    1.0590   -0.9167 C   0  0  0  0  0  0  0  0  0  0  0  0
    4.2736    0.9132   -1.4820 C   0  0  0  0  0  0  0  0  0  0  0  0
    4.7856    1.8469   -2.3897 C   0  0  0  0  0  0  0  0  0  0  0  0
    4.0520    2.9849   -2.7166 C   0  0  0  0  0  0  0  0  0  0  0  0
    4.7425    4.0952   -3.8442 Cl  0  0  0  0  0  0  0  0  0  0  0  0
    2.8059    3.1894   -2.1230 C   0  0  0  0  0  0  0  0  0  0  0  0
    1.8477    4.5916   -2.4465 Cl  0  0  0  0  0  0  0  0  0  0  0  0
    2.2868    2.2388   -1.2298 C   0  0  0  0  0  0  0  0  0  0  0  0
    0.4112   -0.9045    0.4681 H   0  0  0  0  0  0  0  0  0  0  0  0
    0.5495   -0.2176   -1.1320 H   0  0  0  0  0  0  0  0  0  0  0  0
    0.3763    0.8367    0.2900 H   0  0  0  0  0  0  0  0  0  0  0  0
    3.7090    0.8443    1.5115 H   0  0  0  0  0  0  0  0  0  0  0  0
    2.7546   -0.2443    4.6809 H   0  0  0  0  0  0  0  0  0  0  0  0
    2.5489    1.4101    4.0515 H   0  0  0  0  0  0  0  0  0  0  0  0
    4.7946   -0.4207    3.4892 H   0  0  0  0  0  0  0  0  0  0  0  0
    4.8436    0.8144    4.5341 H   0  0  0  0  0  0  0  0  0  0  0  0
    2.0075   -2.2355    1.3133 H   0  0  0  0  0  0  0  0  0  0  0  0
    4.8340   -3.5455   -0.6467 H   0  0  0  0  0  0  0  0  0  0  0  0
    3.6557   -7.4683   -0.6485 H   0  0  0  0  0  0  0  0  0  0  0  0
    1.4378   -8.1904    0.2466 H   0  0  0  0  0  0  0  0  0  0  0  0
   -0.7224   -7.6194    1.2865 H   0  0  0  0  0  0  0  0  0  0  0  0
   -1.2276   -5.2688    1.8931 H   0  0  0  0  0  0  0  0  0  0  0  0
    0.3971   -3.5045    1.4757 H   0  0  0  0  0  0  0  0  0  0  0  0
    4.8892    0.0408   -1.2642 H   0  0  0  0  0  0  0  0  0  0  0  0
    5.7563    1.6665   -2.8466 H   0  0  0  0  0  0  0  0  0  0  0  0
    1.3132    2.4375   -0.7889 H   0  0  0  0  0  0  0  0  0  0  0  0
  1  2  1  0  0  0  0
  1 29  1  0  0  0  0
  1 30  1  0  0  0  0
  1 31  1  0  0  0  0
  2  3  1  0  0  0  0
  2  8  1  0  0  0  0
  2 21  1  0  0  0  0
  3  4  1  0  0  0  0
  3 32  1  0  0  0  0
  4  5  2  0  0  0  0
  4  6  1  0  0  0  0
  6  7  1  0  0  0  0
  6 33  1  0  0  0  0
  6 34  1  0  0  0  0
  7 35  1  0  0  0  0
  7 36  1  0  0  0  0
  8  9  2  0  0  0  0
  8 10  1  0  0  0  0
 10 11  1  0  0  0  0
 10 37  1  0  0  0  0
 11 12  1  0  0  0  0
 11 20  2  0  0  0  0
 12 13  2  0  0  0  0
 12 38  1  0  0  0  0
 13 14  1  0  0  0  0
 14 15  2  0  0  0  0
 14 39  1  0  0  0  0
 15 16  1  0  0  0  0
 15 20  1  0  0  0  0
 16 17  2  0  0  0  0
 16 40  1  0  0  0  0
 17 18  1  0  0  0  0
 17 41  1  0  0  0  0
 18 19  2  0  0  0  0
 18 42  1  0  0  0  0
 19 20  1  0  0  0  0
 19 43  1  0  0  0  0
 21 22  1  0  0  0  0
 21 28  2  0  0  0  0
 22 23  2  0  0  0  0
 22 44  1  0  0  0  0
 23 24  1  0  0  0  0
 23 45  1  0  0  0  0
 24 25  1  0  0  0  0
 24 26  2  0  0  0  0
 26 27  1  0  0  0  0
 26 28  1  0  0  0  0
 28 46  1  0  0  0  0
M  END
$$$$
