
 OpenBabel07202414183D

 52 55  0  0  1  0  0  0  0  0999 V2000
    9.2889    2.4663   -0.9539 F   0  0  0  0  0  0  0  0  0  0  0  0
   10.2617    1.5653   -0.6916 C   0  0  0  0  0  0  0  0  0  0  0  0
   11.4429    2.1575   -1.0003 F   0  0  0  0  0  0  0  0  0  0  0  0
   10.2687    1.3295    0.6374 F   0  0  0  0  0  0  0  0  0  0  0  0
   10.0971    0.2739   -1.5071 C   0  0  0  0  0  0  0  0  0  0  0  0
    8.8759    0.1570   -2.3079 N   0  0  0  0  0  0  0  0  0  0  0  0
    7.7061   -0.2554   -1.7138 C   0  0  0  0  0  0  0  0  0  0  0  0
    7.6450   -0.5403   -0.5203 O   0  0  0  0  0  0  0  0  0  0  0  0
    6.4602   -0.2206   -2.5977 C   0  0  0  0  0  0  0  0  0  0  0  0
    6.6633   -0.4363   -4.0340 N   0  0  0  0  0  0  0  0  0  0  0  0
    6.9578   -1.7801   -4.5248 C   0  0  0  0  0  0  0  0  0  0  0  0
    6.0117   -2.1874   -5.6537 C   0  0  3  0  0  0  0  0  0  0  0  0
    4.6859   -2.6813   -5.0583 C   0  0  0  0  0  0  0  0  0  0  0  0
    4.5050   -3.8816   -4.8748 O   0  0  0  0  0  0  0  0  0  0  0  0
    3.8063   -1.6780   -4.7041 N   0  0  0  0  0  0  0  0  0  0  0  0
    2.4722   -1.7931   -4.2440 C   0  0  0  0  0  0  0  0  0  0  0  0
    1.8202   -3.0182   -4.0955 C   0  0  0  0  0  0  0  0  0  0  0  0
    0.5012   -3.1534   -3.8308 N   0  0  0  0  0  0  0  0  0  0  0  0
   -0.2000   -2.0119   -3.6556 C   0  0  0  0  0  0  0  0  0  0  0  0
    0.3558   -0.7325   -3.6616 C   0  0  0  0  0  0  0  0  0  0  0  0
   -0.4214    0.4011   -3.3593 C   0  0  0  0  0  0  0  0  0  0  0  0
    0.1513    1.6704   -3.3345 C   0  0  0  0  0  0  0  0  0  0  0  0
    1.4975    1.8283   -3.6405 C   0  0  0  0  0  0  0  0  0  0  0  0
    2.2701    0.7090   -3.9595 C   0  0  0  0  0  0  0  0  0  0  0  0
    1.7261   -0.6064   -3.9711 C   0  0  0  0  0  0  0  0  0  0  0  0
    5.8669   -1.0562   -6.6621 C   0  0  0  0  0  0  0  0  0  0  0  0
    5.3477   -1.3178   -7.9413 C   0  0  0  0  0  0  0  0  0  0  0  0
    5.1607   -0.2743   -8.8503 C   0  0  0  0  0  0  0  0  0  0  0  0
    4.4957   -0.6040  -10.4015 Cl  0  0  0  0  0  0  0  0  0  0  0  0
    5.4914    1.0348   -8.5056 C   0  0  0  0  0  0  0  0  0  0  0  0
    6.0121    1.3092   -7.2396 C   0  0  0  0  0  0  0  0  0  0  0  0
    6.1988    0.2722   -6.3161 C   0  0  0  0  0  0  0  0  0  0  0  0
    6.5903    0.6245   -4.9167 C   0  0  0  0  0  0  0  0  0  0  0  0
    6.7166    1.7914   -4.5701 O   0  0  0  0  0  0  0  0  0  0  0  0
   10.1423   -0.5836   -0.8249 H   0  0  0  0  0  0  0  0  0  0  0  0
   10.9309    0.1716   -2.2083 H   0  0  0  0  0  0  0  0  0  0  0  0
    8.7804    0.7246   -3.1463 H   0  0  0  0  0  0  0  0  0  0  0  0
    5.9769    0.7501   -2.4429 H   0  0  0  0  0  0  0  0  0  0  0  0
    5.7692   -0.9979   -2.2530 H   0  0  0  0  0  0  0  0  0  0  0  0
    6.9403   -2.4944   -3.6960 H   0  0  0  0  0  0  0  0  0  0  0  0
    7.9861   -1.7457   -4.9118 H   0  0  0  0  0  0  0  0  0  0  0  0
    6.4564   -3.0453   -6.1767 H   0  0  0  0  0  0  0  0  0  0  0  0
    4.1161   -0.7352   -4.8899 H   0  0  0  0  0  0  0  0  0  0  0  0
    2.3356   -3.9684   -4.1947 H   0  0  0  0  0  0  0  0  0  0  0  0
   -1.2647   -2.1633   -3.4943 H   0  0  0  0  0  0  0  0  0  0  0  0
   -1.4754    0.2970   -3.1135 H   0  0  0  0  0  0  0  0  0  0  0  0
   -0.4480    2.5349   -3.0622 H   0  0  0  0  0  0  0  0  0  0  0  0
    1.9497    2.8145   -3.6198 H   0  0  0  0  0  0  0  0  0  0  0  0
    3.3198    0.8973   -4.1652 H   0  0  0  0  0  0  0  0  0  0  0  0
    5.0688   -2.3316   -8.2256 H   0  0  0  0  0  0  0  0  0  0  0  0
    5.3277    1.8484   -9.2088 H   0  0  0  0  0  0  0  0  0  0  0  0
    6.2382    2.3391   -6.9665 H   0  0  0  0  0  0  0  0  0  0  0  0
  1  2  1  0  0  0  0
  2  3  1  0  0  0  0
  2  4  1  0  0  0  0
  2  5  1  0  0  0  0
  5  6  1  0  0  0  0
  5 35  1  0  0  0  0
  5 36  1  0  0  0  0
  6  7  1  0  0  0  0
  6 37  1  0  0  0  0
  7  8  2  0  0  0  0
  7  9  1  0  0  0  0
  9 10  1  0  0  0  0
  9 38  1  0  0  0  0
  9 39  1  0  0  0  0
 10 11  1  0  0  0  0
 10 33  1  0  0  0  0
 11 12  1  0  0  0  0
 11 40  1  0  0  0  0
 11 41  1  0  0  0  0
 12 13  1  0  0  0  0
 12 26  1  0  0  0  0
 12 42  1  0  0  0  0
 13 14  2  0  0  0  0
 13 15  1  0  0  0  0
 15 16  1  0  0  0  0
 15 43  1  0  0  0  0
 16 17  1  0  0  0  0
 16 25  2  0  0  0  0
 17 18  2  0  0  0  0
 17 44  1  0  0  0  0
 18 19  1  0  0  0  0
 19 20  2  0  0  0  0
 19 45  1  0  0  0  0
 20 21  1  0  0  0  0
 20 25  1  0  0  0  0
 21 22  2  0  0  0  0
 21 46  1  0  0  0  0
 22 23  1  0  0  0  0
 22 47  1  0  0  0  0
 23 24  2  0  0  0  0
 23 48  1  0  0  0  0
 24 25  1  0  0  0  0
 24 49  1  0  0  0  0
 26 27  1  0  0  0  0
 26 32  2  0  0  0  0
 27 28  2  0  0  0  0
 27 50  1  0  0  0  0
 28 29  1  0  0  0  0
 28 30  1  0  0  0  0
 30 31  2  0  0  0  0
 30 51  1  0  0  0  0
 31 32  1  0  0  0  0
 31 52  1  0  0  0  0
 32 33  1  0  0  0  0
 33 34  2  0  0  0  0
M  END
$$$$
