
 OpenBabel07202414163D

 39 42  0  0  1  0  0  0  0  0999 V2000
    1.4754   -0.0090   -1.4564 C   0  0  0  0  0  0  0  0  0  0  0  0
    2.8573    0.4710   -1.0984 C   0  0  0  0  0  0  0  0  0  0  0  0
    3.9008   -0.4859   -1.5134 C   0  0  0  0  0  0  0  0  0  0  0  0
    5.1745   -0.2929   -1.1376 C   0  0  0  0  0  0  0  0  0  0  0  0
    5.4770    0.8253   -0.3848 N   0  0  0  0  0  0  0  0  0  0  0  0
    6.6671    1.2509    0.1368 C   0  0  0  0  0  0  0  0  0  0  0  0
    6.4934    2.3739    0.7899 N   0  0  0  0  0  0  0  0  0  0  0  0
    5.1553    2.7107    0.7079 N   0  0  0  0  0  0  0  0  0  0  0  0
    4.5441    1.7759    0.0030 C   0  0  0  0  0  0  0  0  0  0  0  0
    3.1702    1.5943   -0.3982 C   0  0  0  0  0  0  0  0  0  0  0  0
    2.3090    2.6051    0.0364 N   0  0  0  0  0  0  0  0  0  0  0  0
    1.0944    2.9975   -0.4986 C   0  0  0  0  0  0  0  0  0  0  0  0
    0.6083    2.5595   -1.5424 O   0  0  0  0  0  0  0  0  0  0  0  0
    0.3408    4.1169    0.2515 C   0  0  3  0  0  0  0  0  0  0  0  0
   -0.0777    3.6542    1.6382 C   0  0  0  0  0  0  0  0  0  0  0  0
   -0.3217    4.7532    2.6641 C   0  0  0  0  0  0  0  0  0  0  0  0
    0.1541    6.0669    2.4135 O   0  0  0  0  0  0  0  0  0  0  0  0
    0.9366    6.3006    1.3310 C   0  0  0  0  0  0  0  0  0  0  0  0
    1.0788    5.4250    0.2594 C   0  0  0  0  0  0  0  0  0  0  0  0
    1.8281    5.8430   -0.8573 C   0  0  0  0  0  0  0  0  0  0  0  0
    2.4819    7.0742   -0.8555 C   0  0  0  0  0  0  0  0  0  0  0  0
    2.3665    7.9257    0.2357 C   0  0  0  0  0  0  0  0  0  0  0  0
    1.5753    7.5446    1.3187 C   0  0  0  0  0  0  0  0  0  0  0  0
    3.4257    7.5412   -2.2148 Cl  0  0  0  0  0  0  0  0  0  0  0  0
    1.4392   -1.0979   -1.5733 H   0  0  0  0  0  0  0  0  0  0  0  0
    1.1512    0.4202   -2.4094 H   0  0  0  0  0  0  0  0  0  0  0  0
    0.7569    0.2232   -0.6639 H   0  0  0  0  0  0  0  0  0  0  0  0
    3.6294   -1.3490   -2.1122 H   0  0  0  0  0  0  0  0  0  0  0  0
    5.9806   -0.9679   -1.3983 H   0  0  0  0  0  0  0  0  0  0  0  0
    7.5960    0.7127    0.0109 H   0  0  0  0  0  0  0  0  0  0  0  0
    2.7594    3.2831    0.6579 H   0  0  0  0  0  0  0  0  0  0  0  0
   -0.5814    4.3008   -0.3221 H   0  0  0  0  0  0  0  0  0  0  0  0
    0.6492    2.9499    2.0588 H   0  0  0  0  0  0  0  0  0  0  0  0
   -0.9971    3.0563    1.5488 H   0  0  0  0  0  0  0  0  0  0  0  0
   -1.3972    4.8371    2.8617 H   0  0  0  0  0  0  0  0  0  0  0  0
    0.1244    4.4419    3.6169 H   0  0  0  0  0  0  0  0  0  0  0  0
    1.8974    5.2133   -1.7432 H   0  0  0  0  0  0  0  0  0  0  0  0
    2.8714    8.8868    0.2452 H   0  0  0  0  0  0  0  0  0  0  0  0
    1.4509    8.2222    2.1602 H   0  0  0  0  0  0  0  0  0  0  0  0
  1  2  1  0  0  0  0
  1 25  1  0  0  0  0
  1 26  1  0  0  0  0
  1 27  1  0  0  0  0
  2  3  1  0  0  0  0
  2 10  2  0  0  0  0
  3  4  2  0  0  0  0
  3 28  1  0  0  0  0
  4  5  1  0  0  0  0
  4 29  1  0  0  0  0
  5  6  1  0  0  0  0
  5  9  1  0  0  0  0
  6  7  2  0  0  0  0
  6 30  1  0  0  0  0
  7  8  1  0  0  0  0
  8  9  2  0  0  0  0
  9 10  1  0  0  0  0
 10 11  1  0  0  0  0
 11 12  1  0  0  0  0
 11 31  1  0  0  0  0
 12 13  2  0  0  0  0
 12 14  1  0  0  0  0
 14 15  1  0  0  0  0
 14 19  1  0  0  0  0
 14 32  1  0  0  0  0
 15 16  1  0  0  0  0
 15 33  1  0  0  0  0
 15 34  1  0  0  0  0
 16 17  1  0  0  0  0
 16 35  1  0  0  0  0
 16 36  1  0  0  0  0
 17 18  1  0  0  0  0
 18 19  1  0  0  0  0
 18 23  2  0  0  0  0
 19 20  2  0  0  0  0
 20 21  1  0  0  0  0
 20 37  1  0  0  0  0
 21 22  2  0  0  0  0
 21 24  1  0  0  0  0
 22 23  1  0  0  0  0
 22 38  1  0  0  0  0
 23 39  1  0  0  0  0
M  END
$$$$
