
 OpenBabel07202414133D

 51 54  0  0  0  0  0  0  0  0999 V2000
    1.7255    1.1488    0.2824 C   0  0  0  0  0  0  0  0  0  0  0  0
    2.2271   -0.2842    0.2914 C   0  0  0  0  0  0  0  0  0  0  0  0
    2.9403   -0.4984    1.5145 O   0  0  0  0  0  0  0  0  0  0  0  0
    4.2263   -0.0345    1.5111 C   0  0  0  0  0  0  0  0  0  0  0  0
    4.8690    0.2083    0.4953 O   0  0  0  0  0  0  0  0  0  0  0  0
    4.7440    0.1255    2.8636 C   0  0  0  0  0  0  0  0  0  0  0  0
    4.2432   -0.5474    4.0325 C   0  0  0  0  0  0  0  0  0  0  0  0
    4.9987   -0.3231    5.1698 C   0  0  0  0  0  0  0  0  0  0  0  0
    4.8248   -0.9182    6.5022 C   0  0  0  0  0  0  0  0  0  0  0  0
    4.4232   -2.2601    6.6044 C   0  0  0  0  0  0  0  0  0  0  0  0
    4.2479   -2.8670    7.8488 C   0  0  0  0  0  0  0  0  0  0  0  0
    4.4701   -2.1384    9.0129 C   0  0  0  0  0  0  0  0  0  0  0  0
    4.8585   -0.8020    8.9317 C   0  0  0  0  0  0  0  0  0  0  0  0
    5.0332   -0.1933    7.6843 C   0  0  0  0  0  0  0  0  0  0  0  0
    6.3159    0.7184    4.8188 S   0  0  0  0  0  0  0  0  0  0  0  0
    5.8048    0.9345    3.2142 C   0  0  0  0  0  0  0  0  0  0  0  0
    6.5319    1.8817    2.5240 N   0  0  0  0  0  0  0  0  0  0  0  0
    5.8823    2.8126    1.7254 C   0  0  0  0  0  0  0  0  0  0  0  0
    4.6618    2.9393    1.6292 O   0  0  0  0  0  0  0  0  0  0  0  0
    6.8318    3.7397    0.9974 C   0  0  0  0  0  0  0  0  0  0  0  0
    7.2425    4.8925    1.8505 C   0  0  0  0  0  0  0  0  0  0  0  0
    6.5850    6.1020    1.9691 C   0  0  0  0  0  0  0  0  0  0  0  0
    7.4699    7.1564    2.9826 S   0  0  0  0  0  0  0  0  0  0  0  0
    8.6912    5.9521    3.1753 C   0  0  0  0  0  0  0  0  0  0  0  0
    9.9074    6.2224    3.9664 C   0  0  0  0  0  0  0  0  0  0  0  0
   10.5329    5.1700    4.6514 C   0  0  0  0  0  0  0  0  0  0  0  0
   11.7000    5.3867    5.3924 C   0  0  0  0  0  0  0  0  0  0  0  0
   12.2672    6.6569    5.4502 C   0  0  0  0  0  0  0  0  0  0  0  0
   11.6676    7.7124    4.7696 C   0  0  0  0  0  0  0  0  0  0  0  0
   10.4970    7.4974    4.0341 C   0  0  0  0  0  0  0  0  0  0  0  0
    8.4212    4.8006    2.5828 N   0  0  0  0  0  0  0  0  0  0  0  0
    1.1444    1.3603   -0.6170 H   0  0  0  0  0  0  0  0  0  0  0  0
    2.5611    1.8538    0.3326 H   0  0  0  0  0  0  0  0  0  0  0  0
    1.1056    1.3369    1.1658 H   0  0  0  0  0  0  0  0  0  0  0  0
    2.8443   -0.5087   -0.5862 H   0  0  0  0  0  0  0  0  0  0  0  0
    1.3789   -0.9767    0.2769 H   0  0  0  0  0  0  0  0  0  0  0  0
    3.3801   -1.2045    4.0190 H   0  0  0  0  0  0  0  0  0  0  0  0
    4.2526   -2.8533    5.7086 H   0  0  0  0  0  0  0  0  0  0  0  0
    3.9421   -3.9083    7.9039 H   0  0  0  0  0  0  0  0  0  0  0  0
    4.3382   -2.6112    9.9823 H   0  0  0  0  0  0  0  0  0  0  0  0
    5.0253   -0.2307    9.8415 H   0  0  0  0  0  0  0  0  0  0  0  0
    5.3213    0.8552    7.6515 H   0  0  0  0  0  0  0  0  0  0  0  0
    7.4134    2.1762    2.9305 H   0  0  0  0  0  0  0  0  0  0  0  0
    6.3327    4.0946    0.0877 H   0  0  0  0  0  0  0  0  0  0  0  0
    7.7128    3.1765    0.6696 H   0  0  0  0  0  0  0  0  0  0  0  0
    5.6588    6.4146    1.5063 H   0  0  0  0  0  0  0  0  0  0  0  0
   10.1087    4.1683    4.6115 H   0  0  0  0  0  0  0  0  0  0  0  0
   12.1664    4.5606    5.9161 H   0  0  0  0  0  0  0  0  0  0  0  0
   13.1781    6.8216    6.0193 H   0  0  0  0  0  0  0  0  0  0  0  0
   12.1128    8.7045    4.8014 H   0  0  0  0  0  0  0  0  0  0  0  0
   10.0681    8.3409    3.4975 H   0  0  0  0  0  0  0  0  0  0  0  0
  1  2  1  0  0  0  0
  1 32  1  0  0  0  0
  1 33  1  0  0  0  0
  1 34  1  0  0  0  0
  2  3  1  0  0  0  0
  2 35  1  0  0  0  0
  2 36  1  0  0  0  0
  3  4  1  0  0  0  0
  4  5  2  0  0  0  0
  4  6  1  0  0  0  0
  6  7  1  0  0  0  0
  6 16  2  0  0  0  0
  7  8  2  0  0  0  0
  7 37  1  0  0  0  0
  8  9  1  0  0  0  0
  8 15  1  0  0  0  0
  9 10  1  0  0  0  0
  9 14  2  0  0  0  0
 10 11  2  0  0  0  0
 10 38  1  0  0  0  0
 11 12  1  0  0  0  0
 11 39  1  0  0  0  0
 12 13  2  0  0  0  0
 12 40  1  0  0  0  0
 13 14  1  0  0  0  0
 13 41  1  0  0  0  0
 14 42  1  0  0  0  0
 15 16  1  0  0  0  0
 16 17  1  0  0  0  0
 17 18  1  0  0  0  0
 17 43  1  0  0  0  0
 18 19  2  0  0  0  0
 18 20  1  0  0  0  0
 20 21  1  0  0  0  0
 20 44  1  0  0  0  0
 20 45  1  0  0  0  0
 21 22  2  0  0  0  0
 21 31  1  0  0  0  0
 22 23  1  0  0  0  0
 22 46  1  0  0  0  0
 23 24  1  0  0  0  0
 24 25  1  0  0  0  0
 24 31  2  0  0  0  0
 25 26  1  0  0  0  0
 25 30  2  0  0  0  0
 26 27  2  0  0  0  0
 26 47  1  0  0  0  0
 27 28  1  0  0  0  0
 27 48  1  0  0  0  0
 28 29  2  0  0  0  0
 28 49  1  0  0  0  0
 29 30  1  0  0  0  0
 29 50  1  0  0  0  0
 30 51  1  0  0  0  0
M  END
$$$$
