
 OpenBabel07202414133D

 52 55  0  0  1  0  0  0  0  0999 V2000
    1.5027    0.9040   -1.3162 C   0  0  0  0  0  0  0  0  0  0  0  0
    2.6846    0.4032   -0.6375 N   0  0  0  0  0  0  0  0  0  0  0  0
    3.0403    0.9889    0.6424 C   0  0  0  0  0  0  0  0  0  0  0  0
    3.2574   -0.7775   -1.1362 C   0  0  0  0  0  0  0  0  0  0  0  0
    2.8167   -1.3526   -2.1291 O   0  0  0  0  0  0  0  0  0  0  0  0
    4.4243   -1.3284   -0.3365 C   0  0  0  0  0  0  0  0  0  0  0  0
    5.2317   -2.5266   -0.9581 C   0  0  2  0  0  0  0  0  0  0  0  0
    4.3814   -3.7877   -1.1935 C   0  0  0  0  0  0  0  0  0  0  0  0
    3.9548   -4.3962    0.1290 C   0  0  0  0  0  0  0  0  0  0  0  0
    5.0815   -4.8209    0.8967 O   0  0  0  0  0  0  0  0  0  0  0  0
    6.0801   -3.8952    1.0204 C   0  0  0  0  0  0  0  0  0  0  0  0
    6.2758   -2.8279    0.1316 C   0  0  0  0  0  0  0  0  0  0  0  0
    7.3270   -1.9236    0.3948 C   0  0  0  0  0  0  0  0  0  0  0  0
    8.1234   -2.0700    1.5315 C   0  0  0  0  0  0  0  0  0  0  0  0
    7.9208   -3.1366    2.4004 C   0  0  0  0  0  0  0  0  0  0  0  0
    6.9126   -4.0613    2.1303 C   0  0  0  0  0  0  0  0  0  0  0  0
    9.3186   -0.8873    1.8953 Cl  0  0  0  0  0  0  0  0  0  0  0  0
    5.8834   -2.0398   -2.2777 C   0  0  0  0  0  0  0  0  0  0  0  0
    5.8775   -0.8319   -2.5344 O   0  0  0  0  0  0  0  0  0  0  0  0
    6.5590   -2.9750   -3.0696 N   0  0  0  0  0  0  0  0  0  0  0  0
    7.2275   -2.5919   -4.2784 C   0  0  0  0  0  0  0  0  0  0  0  0
    6.8289   -1.4473   -4.9757 C   0  0  0  0  0  0  0  0  0  0  0  0
    7.5671   -0.8104   -5.9103 N   0  0  0  0  0  0  0  0  0  0  0  0
    8.7651   -1.3526   -6.1799 C   0  0  0  0  0  0  0  0  0  0  0  0
    9.1981   -2.5832   -5.6918 C   0  0  0  0  0  0  0  0  0  0  0  0
    8.3775   -3.2756   -4.7640 C   0  0  0  0  0  0  0  0  0  0  0  0
    8.7865   -4.5866   -4.4128 C   0  0  0  0  0  0  0  0  0  0  0  0
    9.9654   -5.1508   -4.9301 C   0  0  0  0  0  0  0  0  0  0  0  0
   10.7988   -4.4071   -5.7577 C   0  0  0  0  0  0  0  0  0  0  0  0
   10.4180   -3.1214   -6.1313 C   0  0  0  0  0  0  0  0  0  0  0  0
    1.1687    1.8511   -0.8746 H   0  0  0  0  0  0  0  0  0  0  0  0
    0.7030    0.1636   -1.2408 H   0  0  0  0  0  0  0  0  0  0  0  0
    1.7392    1.0708   -2.3689 H   0  0  0  0  0  0  0  0  0  0  0  0
    2.5678    1.9733    0.7706 H   0  0  0  0  0  0  0  0  0  0  0  0
    4.1221    1.1302    0.7088 H   0  0  0  0  0  0  0  0  0  0  0  0
    2.7162    0.3199    1.4444 H   0  0  0  0  0  0  0  0  0  0  0  0
    4.0442   -1.5961    0.6526 H   0  0  0  0  0  0  0  0  0  0  0  0
    5.1191   -0.4889   -0.1962 H   0  0  0  0  0  0  0  0  0  0  0  0
    4.9671   -4.5450   -1.7307 H   0  0  0  0  0  0  0  0  0  0  0  0
    3.5064   -3.5878   -1.8166 H   0  0  0  0  0  0  0  0  0  0  0  0
    3.3428   -5.2848   -0.0585 H   0  0  0  0  0  0  0  0  0  0  0  0
    3.3405   -3.7155    0.7301 H   0  0  0  0  0  0  0  0  0  0  0  0
    7.4843   -1.0566   -0.2470 H   0  0  0  0  0  0  0  0  0  0  0  0
    8.5257   -3.2424    3.2968 H   0  0  0  0  0  0  0  0  0  0  0  0
    6.7409   -4.8882    2.8155 H   0  0  0  0  0  0  0  0  0  0  0  0
    6.8789   -3.8212   -2.6112 H   0  0  0  0  0  0  0  0  0  0  0  0
    5.8677   -0.9754   -4.7903 H   0  0  0  0  0  0  0  0  0  0  0  0
    9.3771   -0.7604   -6.8548 H   0  0  0  0  0  0  0  0  0  0  0  0
    8.1608   -5.2138   -3.7838 H   0  0  0  0  0  0  0  0  0  0  0  0
   10.2341   -6.1764   -4.6872 H   0  0  0  0  0  0  0  0  0  0  0  0
   11.7250   -4.8271   -6.1361 H   0  0  0  0  0  0  0  0  0  0  0  0
   11.0668   -2.5503   -6.7934 H   0  0  0  0  0  0  0  0  0  0  0  0
  1  2  1  0  0  0  0
  1 31  1  0  0  0  0
  1 32  1  0  0  0  0
  1 33  1  0  0  0  0
  2  3  1  0  0  0  0
  2  4  1  0  0  0  0
  3 34  1  0  0  0  0
  3 35  1  0  0  0  0
  3 36  1  0  0  0  0
  4  5  2  0  0  0  0
  4  6  1  0  0  0  0
  6  7  1  0  0  0  0
  6 37  1  0  0  0  0
  6 38  1  0  0  0  0
  7  8  1  0  0  0  0
  7 12  1  0  0  0  0
  7 18  1  6  0  0  0
  8  9  1  0  0  0  0
  8 39  1  0  0  0  0
  8 40  1  0  0  0  0
  9 10  1  0  0  0  0
  9 41  1  0  0  0  0
  9 42  1  0  0  0  0
 10 11  1  0  0  0  0
 11 12  1  0  0  0  0
 11 16  2  0  0  0  0
 12 13  2  0  0  0  0
 13 14  1  0  0  0  0
 13 43  1  0  0  0  0
 14 15  2  0  0  0  0
 14 17  1  0  0  0  0
 15 16  1  0  0  0  0
 15 44  1  0  0  0  0
 16 45  1  0  0  0  0
 18 19  2  0  0  0  0
 18 20  1  0  0  0  0
 20 21  1  0  0  0  0
 20 46  1  0  0  0  0
 21 22  1  0  0  0  0
 21 26  2  0  0  0  0
 22 23  2  0  0  0  0
 22 47  1  0  0  0  0
 23 24  1  0  0  0  0
 24 25  2  0  0  0  0
 24 48  1  0  0  0  0
 25 26  1  0  0  0  0
 25 30  1  0  0  0  0
 26 27  1  0  0  0  0
 27 28  2  0  0  0  0
 27 49  1  0  0  0  0
 28 29  1  0  0  0  0
 28 50  1  0  0  0  0
 29 30  2  0  0  0  0
 29 51  1  0  0  0  0
 30 52  1  0  0  0  0
M  END
$$$$
