
 OpenBabel07202414193D

 50 53  0  0  0  0  0  0  0  0999 V2000
    1.0866    0.1495    0.0279 O   0  0  0  0  0  0  0  0  0  0  0  0
    2.3212    0.1779   -0.0127 C   0  0  0  0  0  0  0  0  0  0  0  0
    3.0958   -0.0982    1.2691 C   0  0  0  0  0  0  0  0  0  0  0  0
    3.4366    1.1301    2.0859 C   0  0  0  0  0  0  0  0  0  0  0  0
    2.9159    2.3836    1.7501 C   0  0  0  0  0  0  0  0  0  0  0  0
    3.2126    3.5351    2.3845 N   0  0  0  0  0  0  0  0  0  0  0  0
    4.0506    3.4415    3.4349 C   0  0  0  0  0  0  0  0  0  0  0  0
    4.6092    2.2532    3.9006 C   0  0  0  0  0  0  0  0  0  0  0  0
    5.4609    2.2386    5.0178 C   0  0  0  0  0  0  0  0  0  0  0  0
    6.0022    1.0428    5.4830 C   0  0  0  0  0  0  0  0  0  0  0  0
    5.6954   -0.1477    4.8358 C   0  0  0  0  0  0  0  0  0  0  0  0
    4.8529   -0.1421    3.7187 C   0  0  0  0  0  0  0  0  0  0  0  0
    4.2914    1.0562    3.2182 C   0  0  0  0  0  0  0  0  0  0  0  0
    3.0060    0.4974   -1.1876 N   0  0  0  0  0  0  0  0  0  0  0  0
    2.1769    0.9067   -2.3366 C   0  0  0  0  0  0  0  0  0  0  0  0
    1.9342   -0.2120   -3.3211 C   0  0  0  0  0  0  0  0  0  0  0  0
    1.6505   -1.5205   -2.9011 C   0  0  0  0  0  0  0  0  0  0  0  0
    1.4842   -2.5363   -3.8371 C   0  0  0  0  0  0  0  0  0  0  0  0
    1.2550   -3.7866   -3.4162 F   0  0  0  0  0  0  0  0  0  0  0  0
    1.5656   -2.2767   -5.2000 C   0  0  0  0  0  0  0  0  0  0  0  0
    1.7955   -0.9728   -5.6336 C   0  0  0  0  0  0  0  0  0  0  0  0
    1.9676    0.0454   -4.6966 C   0  0  0  0  0  0  0  0  0  0  0  0
    2.1923    1.2912   -5.1378 F   0  0  0  0  0  0  0  0  0  0  0  0
    4.4759    0.5031   -1.3263 C   0  0  0  0  0  0  0  0  0  0  0  0
    5.1287    1.8397   -0.9661 C   0  0  0  0  0  0  0  0  0  0  0  0
    6.5341    1.7660   -1.5620 C   0  0  0  0  0  0  0  0  0  0  0  0
    6.5046    0.6530   -2.6065 C   0  0  0  0  0  0  0  0  0  0  0  0
    5.0435    0.2431   -2.7262 C   0  0  0  0  0  0  0  0  0  0  0  0
    3.9931   -0.6788    1.0461 H   0  0  0  0  0  0  0  0  0  0  0  0
    2.4631   -0.7547    1.8820 H   0  0  0  0  0  0  0  0  0  0  0  0
    2.2332    2.5218    0.9151 H   0  0  0  0  0  0  0  0  0  0  0  0
    4.2650    4.3917    3.9177 H   0  0  0  0  0  0  0  0  0  0  0  0
    5.7038    3.1644    5.5366 H   0  0  0  0  0  0  0  0  0  0  0  0
    6.6568    1.0424    6.3504 H   0  0  0  0  0  0  0  0  0  0  0  0
    6.1066   -1.0847    5.2030 H   0  0  0  0  0  0  0  0  0  0  0  0
    4.6300   -1.0996    3.2544 H   0  0  0  0  0  0  0  0  0  0  0  0
    2.6683    1.7642   -2.8109 H   0  0  0  0  0  0  0  0  0  0  0  0
    1.2023    1.2776   -1.9972 H   0  0  0  0  0  0  0  0  0  0  0  0
    1.5653   -1.7680   -1.8474 H   0  0  0  0  0  0  0  0  0  0  0  0
    1.4449   -3.0886   -5.9095 H   0  0  0  0  0  0  0  0  0  0  0  0
    1.8470   -0.7427   -6.6932 H   0  0  0  0  0  0  0  0  0  0  0  0
    4.8863   -0.2702   -0.6706 H   0  0  0  0  0  0  0  0  0  0  0  0
    5.1809    2.0124    0.1102 H   0  0  0  0  0  0  0  0  0  0  0  0
    4.5772    2.6785   -1.4074 H   0  0  0  0  0  0  0  0  0  0  0  0
    7.2713    1.5288   -0.7863 H   0  0  0  0  0  0  0  0  0  0  0  0
    6.8212    2.7265   -2.0020 H   0  0  0  0  0  0  0  0  0  0  0  0
    7.1084   -0.1956   -2.2650 H   0  0  0  0  0  0  0  0  0  0  0  0
    6.9114    0.9829   -3.5676 H   0  0  0  0  0  0  0  0  0  0  0  0
    4.9335   -0.8020   -3.0312 H   0  0  0  0  0  0  0  0  0  0  0  0
    4.5758    0.8717   -3.4901 H   0  0  0  0  0  0  0  0  0  0  0  0
  1  2  2  0  0  0  0
  2  3  1  0  0  0  0
  2 14  1  0  0  0  0
  3  4  1  0  0  0  0
  3 29  1  0  0  0  0
  3 30  1  0  0  0  0
  4  5  1  0  0  0  0
  4 13  2  0  0  0  0
  5  6  2  0  0  0  0
  5 31  1  0  0  0  0
  6  7  1  0  0  0  0
  7  8  2  0  0  0  0
  7 32  1  0  0  0  0
  8  9  1  0  0  0  0
  8 13  1  0  0  0  0
  9 10  2  0  0  0  0
  9 33  1  0  0  0  0
 10 11  1  0  0  0  0
 10 34  1  0  0  0  0
 11 12  2  0  0  0  0
 11 35  1  0  0  0  0
 12 13  1  0  0  0  0
 12 36  1  0  0  0  0
 14 15  1  0  0  0  0
 14 24  1  0  0  0  0
 15 16  1  0  0  0  0
 15 37  1  0  0  0  0
 15 38  1  0  0  0  0
 16 17  1  0  0  0  0
 16 22  2  0  0  0  0
 17 18  2  0  0  0  0
 17 39  1  0  0  0  0
 18 19  1  0  0  0  0
 18 20  1  0  0  0  0
 20 21  2  0  0  0  0
 20 40  1  0  0  0  0
 21 22  1  0  0  0  0
 21 41  1  0  0  0  0
 22 23  1  0  0  0  0
 24 25  1  0  0  0  0
 24 28  1  0  0  0  0
 24 42  1  0  0  0  0
 25 26  1  0  0  0  0
 25 43  1  0  0  0  0
 25 44  1  0  0  0  0
 26 27  1  0  0  0  0
 26 45  1  0  0  0  0
 26 46  1  0  0  0  0
 27 28  1  0  0  0  0
 27 47  1  0  0  0  0
 27 48  1  0  0  0  0
 28 49  1  0  0  0  0
 28 50  1  0  0  0  0
M  END
$$$$
