
 OpenBabel07202414153D

 44 46  0  0  0  0  0  0  0  0999 V2000
    4.0260    1.0650    1.5876 C   0  0  0  0  0  0  0  0  0  0  0  0
    4.0462    0.1159    0.5253 O   0  0  0  0  0  0  0  0  0  0  0  0
    4.1581    0.6668   -0.7235 C   0  0  0  0  0  0  0  0  0  0  0  0
    3.5970    1.8830   -1.1087 C   0  0  0  0  0  0  0  0  0  0  0  0
    3.7693    2.3935   -2.4139 C   0  0  0  0  0  0  0  0  0  0  0  0
    3.1853    3.7692   -2.7656 C   0  0  0  0  0  0  0  0  0  0  0  0
    2.0221    4.1881   -1.9572 N   0  0  0  0  0  0  0  0  0  0  0  0
    0.7793    3.4637   -2.2800 C   0  0  0  0  0  0  0  0  0  0  0  0
    0.0795    3.8769   -3.5887 C   0  0  0  0  0  0  0  0  0  0  0  0
   -0.0733    5.3251   -3.7521 N   0  0  0  0  0  0  0  0  0  0  0  0
   -0.9417    5.9043   -4.6829 C   0  0  0  0  0  0  0  0  0  0  0  0
   -0.9630    7.1247   -4.8723 O   0  0  0  0  0  0  0  0  0  0  0  0
   -1.8377    4.9973   -5.5089 C   0  0  0  0  0  0  0  0  0  0  0  0
   -3.3314    4.6419   -4.6283 Cl  0  0  0  0  0  0  0  0  0  0  0  0
    1.0451    6.1535   -3.2941 C   0  0  0  0  0  0  0  0  0  0  0  0
    1.7574    5.6391   -2.0279 C   0  0  0  0  0  0  0  0  0  0  0  0
    4.5838    1.6596   -3.3342 C   0  0  0  0  0  0  0  0  0  0  0  0
    4.9231    2.1050   -4.6329 C   0  0  0  0  0  0  0  0  0  0  0  0
    5.7315    1.3473   -5.4916 C   0  0  0  0  0  0  0  0  0  0  0  0
    6.2199    0.1157   -5.0820 C   0  0  0  0  0  0  0  0  0  0  0  0
    5.9140   -0.3597   -3.8102 C   0  0  0  0  0  0  0  0  0  0  0  0
    5.1194    0.3999   -2.9328 C   0  0  0  0  0  0  0  0  0  0  0  0
    4.8768   -0.0845   -1.6439 C   0  0  0  0  0  0  0  0  0  0  0  0
    4.2553    0.5333    2.5161 H   0  0  0  0  0  0  0  0  0  0  0  0
    3.0299    1.5054    1.6887 H   0  0  0  0  0  0  0  0  0  0  0  0
    4.7877    1.8420    1.4537 H   0  0  0  0  0  0  0  0  0  0  0  0
    3.0085    2.4533   -0.3959 H   0  0  0  0  0  0  0  0  0  0  0  0
    2.9290    3.8200   -3.8280 H   0  0  0  0  0  0  0  0  0  0  0  0
    4.0093    4.4747   -2.5907 H   0  0  0  0  0  0  0  0  0  0  0  0
    0.0797    3.6448   -1.4516 H   0  0  0  0  0  0  0  0  0  0  0  0
    0.9432    2.3803   -2.2844 H   0  0  0  0  0  0  0  0  0  0  0  0
   -0.9105    3.4116   -3.6064 H   0  0  0  0  0  0  0  0  0  0  0  0
    0.6353    3.5079   -4.4578 H   0  0  0  0  0  0  0  0  0  0  0  0
   -1.3355    4.0658   -5.7805 H   0  0  0  0  0  0  0  0  0  0  0  0
   -2.0992    5.5091   -6.4410 H   0  0  0  0  0  0  0  0  0  0  0  0
    0.6852    7.1732   -3.1082 H   0  0  0  0  0  0  0  0  0  0  0  0
    1.7552    6.2120   -4.1274 H   0  0  0  0  0  0  0  0  0  0  0  0
    1.1265    5.8910   -1.1651 H   0  0  0  0  0  0  0  0  0  0  0  0
    2.6836    6.2079   -1.8786 H   0  0  0  0  0  0  0  0  0  0  0  0
    4.5780    3.0673   -5.0001 H   0  0  0  0  0  0  0  0  0  0  0  0
    5.9815    1.7288   -6.4780 H   0  0  0  0  0  0  0  0  0  0  0  0
    6.8498   -0.4736   -5.7438 H   0  0  0  0  0  0  0  0  0  0  0  0
    6.3173   -1.3170   -3.4993 H   0  0  0  0  0  0  0  0  0  0  0  0
    5.2890   -1.0402   -1.3274 H   0  0  0  0  0  0  0  0  0  0  0  0
  1  2  1  0  0  0  0
  1 24  1  0  0  0  0
  1 25  1  0  0  0  0
  1 26  1  0  0  0  0
  2  3  1  0  0  0  0
  3  4  1  0  0  0  0
  3 23  2  0  0  0  0
  4  5  2  0  0  0  0
  4 27  1  0  0  0  0
  5  6  1  0  0  0  0
  5 17  1  0  0  0  0
  6  7  1  0  0  0  0
  6 28  1  0  0  0  0
  6 29  1  0  0  0  0
  7  8  1  0  0  0  0
  7 16  1  0  0  0  0
  8  9  1  0  0  0  0
  8 30  1  0  0  0  0
  8 31  1  0  0  0  0
  9 10  1  0  0  0  0
  9 32  1  0  0  0  0
  9 33  1  0  0  0  0
 10 11  1  0  0  0  0
 10 15  1  0  0  0  0
 11 12  2  0  0  0  0
 11 13  1  0  0  0  0
 13 14  1  0  0  0  0
 13 34  1  0  0  0  0
 13 35  1  0  0  0  0
 15 16  1  0  0  0  0
 15 36  1  0  0  0  0
 15 37  1  0  0  0  0
 16 38  1  0  0  0  0
 16 39  1  0  0  0  0
 17 18  1  0  0  0  0
 17 22  2  0  0  0  0
 18 19  2  0  0  0  0
 18 40  1  0  0  0  0
 19 20  1  0  0  0  0
 19 41  1  0  0  0  0
 20 21  2  0  0  0  0
 20 42  1  0  0  0  0
 21 22  1  0  0  0  0
 21 43  1  0  0  0  0
 22 23  1  0  0  0  0
 23 44  1  0  0  0  0
M  END
$$$$
