
 OpenBabel07202414113D

 43 45  0  0  0  0  0  0  0  0999 V2000
    1.1006    0.7837    0.0523 C   0  0  0  0  0  0  0  0  0  0  0  0
    2.4232    0.0962   -0.1679 C   0  0  0  0  0  0  0  0  0  0  0  0
    2.8231   -0.7412    0.6416 O   0  0  0  0  0  0  0  0  0  0  0  0
    3.1237    0.4162   -1.3162 N   0  0  0  0  0  0  0  0  0  0  0  0
    2.7470    1.4362   -2.3003 C   0  0  0  0  0  0  0  0  0  0  0  0
    2.7226    0.8372   -3.7224 C   0  0  0  0  0  0  0  0  0  0  0  0
    3.9595    0.1173   -4.1335 N   0  0  0  0  0  0  0  0  0  0  0  0
    5.1056    1.0265   -4.3463 C   0  0  0  0  0  0  0  0  0  0  0  0
    4.8085    2.0711   -5.4235 C   0  0  0  0  0  0  0  0  0  0  0  0
    4.3997    3.1849   -5.0972 O   0  0  0  0  0  0  0  0  0  0  0  0
    5.0125    1.6262   -6.7204 N   0  0  0  0  0  0  0  0  0  0  0  0
    4.9196    2.4268   -7.8944 C   0  0  0  0  0  0  0  0  0  0  0  0
    4.8744    3.8234   -7.8257 C   0  0  0  0  0  0  0  0  0  0  0  0
    4.7870    4.6527   -8.8878 N   0  0  0  0  0  0  0  0  0  0  0  0
    4.7480    4.0663  -10.0972 C   0  0  0  0  0  0  0  0  0  0  0  0
    4.8095    2.6934  -10.3143 C   0  0  0  0  0  0  0  0  0  0  0  0
    4.7736    2.1824  -11.6241 C   0  0  0  0  0  0  0  0  0  0  0  0
    4.8314    0.8120  -11.8534 C   0  0  0  0  0  0  0  0  0  0  0  0
    4.9241   -0.0586  -10.7770 C   0  0  0  0  0  0  0  0  0  0  0  0
    4.9567    0.4395   -9.4659 C   0  0  0  0  0  0  0  0  0  0  0  0
    4.9040    1.8310   -9.1916 C   0  0  0  0  0  0  0  0  0  0  0  0
    4.2918   -0.8774   -3.0777 C   0  0  0  0  0  0  0  0  0  0  0  0
    4.3494   -0.3145   -1.6384 C   0  0  0  0  0  0  0  0  0  0  0  0
    0.6943    0.4834    1.0229 H   0  0  0  0  0  0  0  0  0  0  0  0
    0.3946    0.4773   -0.7250 H   0  0  0  0  0  0  0  0  0  0  0  0
    1.2216    1.8691    0.0606 H   0  0  0  0  0  0  0  0  0  0  0  0
    3.4848    2.2440   -2.2305 H   0  0  0  0  0  0  0  0  0  0  0  0
    1.7715    1.8721   -2.0759 H   0  0  0  0  0  0  0  0  0  0  0  0
    2.4540    1.6125   -4.4474 H   0  0  0  0  0  0  0  0  0  0  0  0
    1.8976    0.1131   -3.7680 H   0  0  0  0  0  0  0  0  0  0  0  0
    5.9821    0.4501   -4.6677 H   0  0  0  0  0  0  0  0  0  0  0  0
    5.3986    1.5676   -3.4396 H   0  0  0  0  0  0  0  0  0  0  0  0
    5.1224    0.6274   -6.8323 H   0  0  0  0  0  0  0  0  0  0  0  0
    4.9295    4.3615   -6.8853 H   0  0  0  0  0  0  0  0  0  0  0  0
    4.6622    4.7669  -10.9245 H   0  0  0  0  0  0  0  0  0  0  0  0
    4.6978    2.8557  -12.4757 H   0  0  0  0  0  0  0  0  0  0  0  0
    4.8012    0.4293  -12.8710 H   0  0  0  0  0  0  0  0  0  0  0  0
    4.9639   -1.1309  -10.9534 H   0  0  0  0  0  0  0  0  0  0  0  0
    5.0232   -0.2906   -8.6654 H   0  0  0  0  0  0  0  0  0  0  0  0
    5.2366   -1.3789   -3.3176 H   0  0  0  0  0  0  0  0  0  0  0  0
    3.5215   -1.6597   -3.1094 H   0  0  0  0  0  0  0  0  0  0  0  0
    5.1870    0.3827   -1.5219 H   0  0  0  0  0  0  0  0  0  0  0  0
    4.5164   -1.1372   -0.9372 H   0  0  0  0  0  0  0  0  0  0  0  0
  1  2  1  0  0  0  0
  1 24  1  0  0  0  0
  1 25  1  0  0  0  0
  1 26  1  0  0  0  0
  2  3  2  0  0  0  0
  2  4  1  0  0  0  0
  4  5  1  0  0  0  0
  4 23  1  0  0  0  0
  5  6  1  0  0  0  0
  5 27  1  0  0  0  0
  5 28  1  0  0  0  0
  6  7  1  0  0  0  0
  6 29  1  0  0  0  0
  6 30  1  0  0  0  0
  7  8  1  0  0  0  0
  7 22  1  0  0  0  0
  8  9  1  0  0  0  0
  8 31  1  0  0  0  0
  8 32  1  0  0  0  0
  9 10  2  0  0  0  0
  9 11  1  0  0  0  0
 11 12  1  0  0  0  0
 11 33  1  0  0  0  0
 12 13  1  0  0  0  0
 12 21  2  0  0  0  0
 13 14  2  0  0  0  0
 13 34  1  0  0  0  0
 14 15  1  0  0  0  0
 15 16  2  0  0  0  0
 15 35  1  0  0  0  0
 16 17  1  0  0  0  0
 16 21  1  0  0  0  0
 17 18  2  0  0  0  0
 17 36  1  0  0  0  0
 18 19  1  0  0  0  0
 18 37  1  0  0  0  0
 19 20  2  0  0  0  0
 19 38  1  0  0  0  0
 20 21  1  0  0  0  0
 20 39  1  0  0  0  0
 22 23  1  0  0  0  0
 22 40  1  0  0  0  0
 22 41  1  0  0  0  0
 23 42  1  0  0  0  0
 23 43  1  0  0  0  0
M  END
$$$$
