
 OpenBabel07202414153D

 41 44  0  0  1  0  0  0  0  0999 V2000
    1.7469   -1.4646   -0.0492 C   0  0  0  0  0  0  0  0  0  0  0  0
    3.0577   -0.9262    0.0704 O   0  0  0  0  0  0  0  0  0  0  0  0
    3.3592   -0.3850    1.2993 C   0  0  0  0  0  0  0  0  0  0  0  0
    2.7476   -0.8038    2.5141 C   0  0  0  0  0  0  0  0  0  0  0  0
    3.0907   -0.2755    3.7746 C   0  0  0  0  0  0  0  0  0  0  0  0
    4.0803    0.7207    3.7370 C   0  0  0  0  0  0  0  0  0  0  0  0
    4.6790    1.1517    2.4813 C   0  0  0  0  0  0  0  0  0  0  0  0
    4.3719    0.5956    1.2369 C   0  0  0  0  0  0  0  0  0  0  0  0
    5.5991    2.1284    2.8006 C   0  0  0  0  0  0  0  0  0  0  0  0
    5.5337    2.1979    4.1772 N   0  0  0  0  0  0  0  0  0  0  0  0
    4.6351    1.3907    4.7551 N   0  0  0  0  0  0  0  0  0  0  0  0
    6.4796    2.9214    2.0608 N   0  0  0  0  0  0  0  0  0  0  0  0
    6.3813    3.2467    0.6565 C   0  0  0  0  0  0  0  0  0  0  0  0
    5.4535    2.8437   -0.0296 O   0  0  0  0  0  0  0  0  0  0  0  0
    7.4601    4.1321    0.0659 C   0  0  3  0  0  0  0  0  0  0  0  0
    8.6398    3.3043   -0.4227 C   0  0  0  0  0  0  0  0  0  0  0  0
    9.5033    2.8791    0.7502 C   0  0  0  0  0  0  0  0  0  0  0  0
    9.9475    3.9702    1.5651 O   0  0  0  0  0  0  0  0  0  0  0  0
    9.1153    5.0400    1.7180 C   0  0  0  0  0  0  0  0  0  0  0  0
    7.9113    5.1899    1.0309 C   0  0  0  0  0  0  0  0  0  0  0  0
    7.0994    6.3103    1.2758 C   0  0  0  0  0  0  0  0  0  0  0  0
    7.5050    7.2783    2.1902 C   0  0  0  0  0  0  0  0  0  0  0  0
    8.7162    7.1385    2.8615 C   0  0  0  0  0  0  0  0  0  0  0  0
    9.5199    6.0194    2.6235 C   0  0  0  0  0  0  0  0  0  0  0  0
    6.4962    8.6344    2.4961 Cl  0  0  0  0  0  0  0  0  0  0  0  0
    1.5718   -1.6926   -1.1038 H   0  0  0  0  0  0  0  0  0  0  0  0
    0.9932   -0.7364    0.2708 H   0  0  0  0  0  0  0  0  0  0  0  0
    1.6574   -2.4001    0.5116 H   0  0  0  0  0  0  0  0  0  0  0  0
    1.9924   -1.5859    2.5019 H   0  0  0  0  0  0  0  0  0  0  0  0
    2.6361   -0.6227    4.6928 H   0  0  0  0  0  0  0  0  0  0  0  0
    4.8161    0.8298    0.2828 H   0  0  0  0  0  0  0  0  0  0  0  0
    6.0592    2.8069    4.7926 H   0  0  0  0  0  0  0  0  0  0  0  0
    7.2074    3.3905    2.5888 H   0  0  0  0  0  0  0  0  0  0  0  0
    7.0186    4.6356   -0.8062 H   0  0  0  0  0  0  0  0  0  0  0  0
    9.2446    3.9108   -1.1079 H   0  0  0  0  0  0  0  0  0  0  0  0
    8.2960    2.4236   -0.9827 H   0  0  0  0  0  0  0  0  0  0  0  0
   10.3964    2.3679    0.3749 H   0  0  0  0  0  0  0  0  0  0  0  0
    8.9799    2.1595    1.3895 H   0  0  0  0  0  0  0  0  0  0  0  0
    6.1518    6.4355    0.7508 H   0  0  0  0  0  0  0  0  0  0  0  0
    9.0427    7.8993    3.5669 H   0  0  0  0  0  0  0  0  0  0  0  0
   10.4683    5.9176    3.1478 H   0  0  0  0  0  0  0  0  0  0  0  0
  1  2  1  0  0  0  0
  1 26  1  0  0  0  0
  1 27  1  0  0  0  0
  1 28  1  0  0  0  0
  2  3  1  0  0  0  0
  3  4  1  0  0  0  0
  3  8  2  0  0  0  0
  4  5  2  0  0  0  0
  4 29  1  0  0  0  0
  5  6  1  0  0  0  0
  5 30  1  0  0  0  0
  6  7  1  0  0  0  0
  6 11  2  0  0  0  0
  7  8  1  0  0  0  0
  7  9  2  0  0  0  0
  8 31  1  0  0  0  0
  9 10  1  0  0  0  0
  9 12  1  0  0  0  0
 10 11  1  0  0  0  0
 10 32  1  0  0  0  0
 12 13  1  0  0  0  0
 12 33  1  0  0  0  0
 13 14  2  0  0  0  0
 13 15  1  0  0  0  0
 15 16  1  0  0  0  0
 15 20  1  0  0  0  0
 15 34  1  0  0  0  0
 16 17  1  0  0  0  0
 16 35  1  0  0  0  0
 16 36  1  0  0  0  0
 17 18  1  0  0  0  0
 17 37  1  0  0  0  0
 17 38  1  0  0  0  0
 18 19  1  0  0  0  0
 19 20  1  0  0  0  0
 19 24  2  0  0  0  0
 20 21  2  0  0  0  0
 21 22  1  0  0  0  0
 21 39  1  0  0  0  0
 22 23  2  0  0  0  0
 22 25  1  0  0  0  0
 23 24  1  0  0  0  0
 23 40  1  0  0  0  0
 24 41  1  0  0  0  0
M  END
$$$$
