
 OpenBabel07202414183D

 49 51  0  0  0  0  0  0  0  0999 V2000
   -1.0452    0.9065    2.0745 Cl  0  0  0  0  0  0  0  0  0  0  0  0
    0.1192    0.5183    0.8682 C   0  0  0  0  0  0  0  0  0  0  0  0
    0.4038    1.4311   -0.1407 C   0  0  0  0  0  0  0  0  0  0  0  0
    1.3722    1.1194   -1.0942 C   0  0  0  0  0  0  0  0  0  0  0  0
    2.0674   -0.0926   -1.0206 C   0  0  0  0  0  0  0  0  0  0  0  0
    1.7904   -1.0126   -0.0005 C   0  0  0  0  0  0  0  0  0  0  0  0
    2.5277   -2.2331    0.1175 N   0  0  0  0  0  0  0  0  0  0  0  0
    1.7647   -3.4899    0.0343 C   0  0  0  0  0  0  0  0  0  0  0  0
    2.1103   -4.5672    1.0869 C   0  0  0  0  0  0  0  0  0  0  0  0
    1.7357   -4.3006    2.5572 C   0  0  0  0  0  0  0  0  0  0  0  0
    0.2266   -4.0840    2.7374 C   0  0  0  0  0  0  0  0  0  0  0  0
   -0.1503   -3.7596    4.1795 C   0  0  0  0  0  0  0  0  0  0  0  0
    0.6865   -2.6193    4.7487 C   0  0  0  0  0  0  0  0  0  0  0  0
    2.1767   -2.9239    4.6460 C   0  0  0  0  0  0  0  0  0  0  0  0
    2.5871   -3.1973    3.2031 C   0  0  0  0  0  0  0  0  0  0  0  0
    3.9200   -2.3276   -0.0947 C   0  0  0  0  0  0  0  0  0  0  0  0
    4.4364   -3.3877   -0.4328 O   0  0  0  0  0  0  0  0  0  0  0  0
    4.6182   -1.1797    0.2260 N   0  0  0  0  0  0  0  0  0  0  0  0
    6.0232   -1.0493    0.2875 C   0  0  0  0  0  0  0  0  0  0  0  0
    6.9244   -2.0322   -0.1160 C   0  0  0  0  0  0  0  0  0  0  0  0
    8.2939   -1.8406    0.0575 C   0  0  0  0  0  0  0  0  0  0  0  0
    8.7294   -0.6538    0.6152 C   0  0  0  0  0  0  0  0  0  0  0  0
    7.8978    0.3445    0.9874 N   0  0  0  0  0  0  0  0  0  0  0  0
    6.5710    0.1229    0.8115 C   0  0  0  0  0  0  0  0  0  0  0  0
    0.7928   -0.7017    0.9289 C   0  0  0  0  0  0  0  0  0  0  0  0
   -0.1209    2.3825   -0.1879 H   0  0  0  0  0  0  0  0  0  0  0  0
    1.5873    1.8217   -1.8962 H   0  0  0  0  0  0  0  0  0  0  0  0
    2.8071   -0.3207   -1.7858 H   0  0  0  0  0  0  0  0  0  0  0  0
    1.9915   -3.9185   -0.9532 H   0  0  0  0  0  0  0  0  0  0  0  0
    0.6865   -3.2913    0.0294 H   0  0  0  0  0  0  0  0  0  0  0  0
    3.1762   -4.8167    1.0475 H   0  0  0  0  0  0  0  0  0  0  0  0
    1.5906   -5.4856    0.7796 H   0  0  0  0  0  0  0  0  0  0  0  0
    1.9788   -5.2254    3.1023 H   0  0  0  0  0  0  0  0  0  0  0  0
   -0.3130   -4.9842    2.4189 H   0  0  0  0  0  0  0  0  0  0  0  0
   -0.1362   -3.2796    2.0960 H   0  0  0  0  0  0  0  0  0  0  0  0
   -0.0151   -4.6545    4.7987 H   0  0  0  0  0  0  0  0  0  0  0  0
   -1.2129   -3.4957    4.2267 H   0  0  0  0  0  0  0  0  0  0  0  0
    0.4160   -2.4526    5.7969 H   0  0  0  0  0  0  0  0  0  0  0  0
    0.4623   -1.6908    4.2098 H   0  0  0  0  0  0  0  0  0  0  0  0
    2.4201   -3.7935    5.2688 H   0  0  0  0  0  0  0  0  0  0  0  0
    2.7539   -2.0785    5.0370 H   0  0  0  0  0  0  0  0  0  0  0  0
    3.6459   -3.4830    3.1756 H   0  0  0  0  0  0  0  0  0  0  0  0
    2.5069   -2.2599    2.6524 H   0  0  0  0  0  0  0  0  0  0  0  0
    4.0763   -0.4177    0.6070 H   0  0  0  0  0  0  0  0  0  0  0  0
    6.6010   -2.9684   -0.5572 H   0  0  0  0  0  0  0  0  0  0  0  0
    8.9991   -2.6140   -0.2301 H   0  0  0  0  0  0  0  0  0  0  0  0
    9.7849   -0.4687    0.7838 H   0  0  0  0  0  0  0  0  0  0  0  0
    5.9406    0.9432    1.1389 H   0  0  0  0  0  0  0  0  0  0  0  0
    0.5743   -1.3723    1.7497 H   0  0  0  0  0  0  0  0  0  0  0  0
  1  2  1  0  0  0  0
  2  3  1  0  0  0  0
  2 25  2  0  0  0  0
  3  4  2  0  0  0  0
  3 26  1  0  0  0  0
  4  5  1  0  0  0  0
  4 27  1  0  0  0  0
  5  6  2  0  0  0  0
  5 28  1  0  0  0  0
  6  7  1  0  0  0  0
  6 25  1  0  0  0  0
  7  8  1  0  0  0  0
  7 16  1  0  0  0  0
  8  9  1  0  0  0  0
  8 29  1  0  0  0  0
  8 30  1  0  0  0  0
  9 10  1  0  0  0  0
  9 31  1  0  0  0  0
  9 32  1  0  0  0  0
 10 11  1  0  0  0  0
 10 15  1  0  0  0  0
 10 33  1  0  0  0  0
 11 12  1  0  0  0  0
 11 34  1  0  0  0  0
 11 35  1  0  0  0  0
 12 13  1  0  0  0  0
 12 36  1  0  0  0  0
 12 37  1  0  0  0  0
 13 14  1  0  0  0  0
 13 38  1  0  0  0  0
 13 39  1  0  0  0  0
 14 15  1  0  0  0  0
 14 40  1  0  0  0  0
 14 41  1  0  0  0  0
 15 42  1  0  0  0  0
 15 43  1  0  0  0  0
 16 17  2  0  0  0  0
 16 18  1  0  0  0  0
 18 19  1  0  0  0  0
 18 44  1  0  0  0  0
 19 20  1  0  0  0  0
 19 24  2  0  0  0  0
 20 21  2  0  0  0  0
 20 45  1  0  0  0  0
 21 22  1  0  0  0  0
 21 46  1  0  0  0  0
 22 23  2  0  0  0  0
 22 47  1  0  0  0  0
 23 24  1  0  0  0  0
 24 48  1  0  0  0  0
 25 49  1  0  0  0  0
M  END
$$$$
