
 OpenBabel07202414143D

 58 61  0  0  1  0  0  0  0  0999 V2000
    5.7538    2.5321    2.1562 C   0  0  0  0  0  0  0  0  0  0  0  0
    5.6020    1.1134    1.9521 N   0  0  0  0  0  0  0  0  0  0  0  0
    4.4074    0.5904    1.5117 C   0  0  0  0  0  0  0  0  0  0  0  0
    3.3914    1.2706    1.3752 O   0  0  0  0  0  0  0  0  0  0  0  0
    4.4759   -0.8415    0.9741 C   0  0  0  0  0  0  0  0  0  0  0  0
    5.0845   -1.8941    1.8054 N   0  0  0  0  0  0  0  0  0  0  0  0
    4.2825   -3.0122    2.3340 C   0  0  3  0  0  0  0  0  0  0  0  0
    2.7794   -2.7940    2.4939 C   0  0  0  0  0  0  0  0  0  0  0  0
    4.6355   -4.3228    1.6066 C   0  0  3  0  0  0  0  0  0  0  0  0
    4.1572   -4.3994    0.1474 C   0  0  0  0  0  0  0  0  0  0  0  0
    3.2734   -5.2012   -0.1480 O   0  0  0  0  0  0  0  0  0  0  0  0
    4.7884   -3.5480   -0.7465 N   0  0  0  0  0  0  0  0  0  0  0  0
    4.6168   -3.5098   -2.1591 C   0  0  0  0  0  0  0  0  0  0  0  0
    3.5863   -4.1980   -2.8022 C   0  0  0  0  0  0  0  0  0  0  0  0
    3.4692   -4.3306   -4.1422 N   0  0  0  0  0  0  0  0  0  0  0  0
    4.3991   -3.7127   -4.8920 C   0  0  0  0  0  0  0  0  0  0  0  0
    5.4029   -2.8919   -4.3852 C   0  0  0  0  0  0  0  0  0  0  0  0
    6.2639   -2.2021   -5.2659 C   0  0  0  0  0  0  0  0  0  0  0  0
    7.2587   -1.3728   -4.7615 C   0  0  0  0  0  0  0  0  0  0  0  0
    8.3551   -0.5375   -5.8873 S   0  0  0  0  0  0  0  0  0  0  0  0
    7.5840    1.0347   -6.1724 C   0  0  0  0  0  0  0  0  0  0  0  0
    9.5995   -0.3012   -5.1826 O   0  0  0  0  0  0  0  0  0  0  0  0
    8.3375   -1.2769   -7.1347 O   0  0  0  0  0  0  0  0  0  0  0  0
    7.4494   -1.2581   -3.3900 C   0  0  0  0  0  0  0  0  0  0  0  0
    6.5994   -1.9536   -2.5116 C   0  0  0  0  0  0  0  0  0  0  0  0
    5.5353   -2.7779   -2.9776 C   0  0  0  0  0  0  0  0  0  0  0  0
    6.1317   -4.5449    1.7587 C   0  0  0  0  0  0  0  0  0  0  0  0
    6.6565   -5.8463    1.7668 C   0  0  0  0  0  0  0  0  0  0  0  0
    8.0265   -6.0413    1.9400 C   0  0  0  0  0  0  0  0  0  0  0  0
    8.6635   -7.6385    1.9591 Cl  0  0  0  0  0  0  0  0  0  0  0  0
    8.8828   -4.9513    2.0967 C   0  0  0  0  0  0  0  0  0  0  0  0
    8.3719   -3.6493    2.0740 C   0  0  0  0  0  0  0  0  0  0  0  0
    6.9991   -3.4409    1.9106 C   0  0  0  0  0  0  0  0  0  0  0  0
    6.4734   -2.0441    1.7662 C   0  0  0  0  0  0  0  0  0  0  0  0
    7.2299   -1.1238    1.4761 O   0  0  0  0  0  0  0  0  0  0  0  0
    6.6569    2.7117    2.7425 H   0  0  0  0  0  0  0  0  0  0  0  0
    4.8801    2.9363    2.6748 H   0  0  0  0  0  0  0  0  0  0  0  0
    5.8455    3.0199    1.1804 H   0  0  0  0  0  0  0  0  0  0  0  0
    6.4382    0.5358    1.8507 H   0  0  0  0  0  0  0  0  0  0  0  0
    5.0612   -0.7780    0.0483 H   0  0  0  0  0  0  0  0  0  0  0  0
    3.4700   -1.1415    0.6735 H   0  0  0  0  0  0  0  0  0  0  0  0
    4.6506   -3.1300    3.3675 H   0  0  0  0  0  0  0  0  0  0  0  0
    2.2617   -2.6813    1.5385 H   0  0  0  0  0  0  0  0  0  0  0  0
    2.5831   -1.9059    3.1035 H   0  0  0  0  0  0  0  0  0  0  0  0
    2.3294   -3.6511    3.0093 H   0  0  0  0  0  0  0  0  0  0  0  0
    4.1291   -5.1413    2.1396 H   0  0  0  0  0  0  0  0  0  0  0  0
    5.5670   -3.0186   -0.3881 H   0  0  0  0  0  0  0  0  0  0  0  0
    2.7825   -4.6846   -2.2598 H   0  0  0  0  0  0  0  0  0  0  0  0
    4.3073   -3.9048   -5.9591 H   0  0  0  0  0  0  0  0  0  0  0  0
    6.1435   -2.3174   -6.3390 H   0  0  0  0  0  0  0  0  0  0  0  0
    7.5509    1.5966   -5.2380 H   0  0  0  0  0  0  0  0  0  0  0  0
    6.5812    0.8775   -6.5726 H   0  0  0  0  0  0  0  0  0  0  0  0
    8.1922    1.5804   -6.8987 H   0  0  0  0  0  0  0  0  0  0  0  0
    8.2555   -0.6501   -2.9835 H   0  0  0  0  0  0  0  0  0  0  0  0
    6.7881   -1.8187   -1.4486 H   0  0  0  0  0  0  0  0  0  0  0  0
    6.0003   -6.7075    1.6454 H   0  0  0  0  0  0  0  0  0  0  0  0
    9.9515   -5.1079    2.2250 H   0  0  0  0  0  0  0  0  0  0  0  0
    9.0499   -2.8040    2.1732 H   0  0  0  0  0  0  0  0  0  0  0  0
  1  2  1  0  0  0  0
  1 36  1  0  0  0  0
  1 37  1  0  0  0  0
  1 38  1  0  0  0  0
  2  3  1  0  0  0  0
  2 39  1  0  0  0  0
  3  4  2  0  0  0  0
  3  5  1  0  0  0  0
  5  6  1  0  0  0  0
  5 40  1  0  0  0  0
  5 41  1  0  0  0  0
  6  7  1  0  0  0  0
  6 34  1  0  0  0  0
  7  8  1  0  0  0  0
  7  9  1  0  0  0  0
  7 42  1  0  0  0  0
  8 43  1  0  0  0  0
  8 44  1  0  0  0  0
  8 45  1  0  0  0  0
  9 10  1  0  0  0  0
  9 27  1  0  0  0  0
  9 46  1  0  0  0  0
 10 11  2  0  0  0  0
 10 12  1  0  0  0  0
 12 13  1  0  0  0  0
 12 47  1  0  0  0  0
 13 14  1  0  0  0  0
 13 26  2  0  0  0  0
 14 15  2  0  0  0  0
 14 48  1  0  0  0  0
 15 16  1  0  0  0  0
 16 17  2  0  0  0  0
 16 49  1  0  0  0  0
 17 18  1  0  0  0  0
 17 26  1  0  0  0  0
 18 19  2  0  0  0  0
 18 50  1  0  0  0  0
 19 20  1  0  0  0  0
 19 24  1  0  0  0  0
 20 21  1  0  0  0  0
 20 22  2  0  0  0  0
 20 23  2  0  0  0  0
 21 51  1  0  0  0  0
 21 52  1  0  0  0  0
 21 53  1  0  0  0  0
 24 25  2  0  0  0  0
 24 54  1  0  0  0  0
 25 26  1  0  0  0  0
 25 55  1  0  0  0  0
 27 28  1  0  0  0  0
 27 33  2  0  0  0  0
 28 29  2  0  0  0  0
 28 56  1  0  0  0  0
 29 30  1  0  0  0  0
 29 31  1  0  0  0  0
 31 32  2  0  0  0  0
 31 57  1  0  0  0  0
 32 33  1  0  0  0  0
 32 58  1  0  0  0  0
 33 34  1  0  0  0  0
 34 35  2  0  0  0  0
M  END
$$$$
