
 OpenBabel07202414183D

 59 63  0  0  1  0  0  0  0  0999 V2000
    4.2464    7.1915  -12.6791 F   0  0  0  0  0  0  0  0  0  0  0  0
    3.0944    7.6590  -12.1252 C   0  0  0  0  0  0  0  0  0  0  0  0
    2.9610    8.9400  -12.5684 F   0  0  0  0  0  0  0  0  0  0  0  0
    2.0871    6.9567  -12.7140 F   0  0  0  0  0  0  0  0  0  0  0  0
    3.0596    7.5640  -10.6313 C   0  0  0  0  0  0  0  0  0  0  0  0
    4.1158    7.0118   -9.9286 C   0  0  0  0  0  0  0  0  0  0  0  0
    4.1354    6.8776   -8.5826 N   0  0  0  0  0  0  0  0  0  0  0  0
    3.0797    7.3085   -7.8704 C   0  0  0  0  0  0  0  0  0  0  0  0
    3.0734    7.1911   -6.4782 N   0  0  0  0  0  0  0  0  0  0  0  0
    4.0285    6.4922   -5.7495 C   0  0  0  0  0  0  0  0  0  0  0  0
    4.9062    5.7642   -6.1943 O   0  0  0  0  0  0  0  0  0  0  0  0
    3.8615    6.6226   -4.2281 C   0  0  0  0  0  0  0  0  0  0  0  0
    3.4704    7.9821   -3.7737 N   0  0  0  0  0  0  0  0  0  0  0  0
    4.5114    8.9823   -4.1205 C   0  0  0  0  0  0  0  0  0  0  0  0
    4.1076   10.4052   -3.6980 C   0  0  2  0  0  0  0  0  0  0  0  0
    5.3183   11.3195   -3.7643 C   0  0  0  0  0  0  0  0  0  0  0  0
    5.3354   12.2705   -4.5438 O   0  0  0  0  0  0  0  0  0  0  0  0
    6.3599   11.0054   -2.9245 N   0  0  0  0  0  0  0  0  0  0  0  0
    7.4718   11.8531   -2.6812 C   0  0  0  0  0  0  0  0  0  0  0  0
    8.7004   11.2894   -2.2823 C   0  0  0  0  0  0  0  0  0  0  0  0
    9.0120    9.9159   -2.4022 C   0  0  0  0  0  0  0  0  0  0  0  0
   10.1678    9.3932   -1.8277 C   0  0  0  0  0  0  0  0  0  0  0  0
   11.0019   10.2245   -1.0915 C   0  0  0  0  0  0  0  0  0  0  0  0
   10.8293   11.6050   -1.1531 C   0  0  0  0  0  0  0  0  0  0  0  0
    9.6954   12.1476   -1.7745 C   0  0  0  0  0  0  0  0  0  0  0  0
    9.4865   13.5245   -1.8696 C   0  0  0  0  0  0  0  0  0  0  0  0
    8.3463   14.0925   -2.3138 N   0  0  0  0  0  0  0  0  0  0  0  0
    7.3547   13.2438   -2.6711 C   0  0  0  0  0  0  0  0  0  0  0  0
    3.4357   10.4748   -2.3379 C   0  0  0  0  0  0  0  0  0  0  0  0
    3.0998    9.2920   -1.6629 C   0  0  0  0  0  0  0  0  0  0  0  0
    3.3399    7.9360   -2.2942 C   0  0  0  0  0  0  0  0  0  0  0  0
    2.5790    9.3703   -0.3603 C   0  0  0  0  0  0  0  0  0  0  0  0
    2.3292   10.6101    0.2313 C   0  0  0  0  0  0  0  0  0  0  0  0
    2.5775   11.7781   -0.4814 C   0  0  0  0  0  0  0  0  0  0  0  0
    2.2252   13.3065    0.2243 Cl  0  0  0  0  0  0  0  0  0  0  0  0
    3.1221   11.7156   -1.7601 C   0  0  0  0  0  0  0  0  0  0  0  0
    1.9835    7.8993   -8.4878 C   0  0  0  0  0  0  0  0  0  0  0  0
    1.9700    8.0169   -9.8822 C   0  0  0  0  0  0  0  0  0  0  0  0
    5.0096    6.6442  -10.4297 H   0  0  0  0  0  0  0  0  0  0  0  0
    2.3533    7.6636   -5.9464 H   0  0  0  0  0  0  0  0  0  0  0  0
    4.8147    6.3266   -3.7758 H   0  0  0  0  0  0  0  0  0  0  0  0
    3.0974    5.8958   -3.9351 H   0  0  0  0  0  0  0  0  0  0  0  0
    4.6733    9.0011   -5.2073 H   0  0  0  0  0  0  0  0  0  0  0  0
    5.4674    8.6745   -3.6790 H   0  0  0  0  0  0  0  0  0  0  0  0
    3.3699   10.7783   -4.4263 H   0  0  0  0  0  0  0  0  0  0  0  0
    6.3477   10.1344   -2.4077 H   0  0  0  0  0  0  0  0  0  0  0  0
    8.3628    9.2451   -2.9607 H   0  0  0  0  0  0  0  0  0  0  0  0
   10.4064    8.3388   -1.9384 H   0  0  0  0  0  0  0  0  0  0  0  0
   11.7939    9.8005   -0.4815 H   0  0  0  0  0  0  0  0  0  0  0  0
   11.5605   12.2545   -0.6777 H   0  0  0  0  0  0  0  0  0  0  0  0
   10.2560   14.2333   -1.5737 H   0  0  0  0  0  0  0  0  0  0  0  0
    6.4132   13.7365   -2.8962 H   0  0  0  0  0  0  0  0  0  0  0  0
    2.4958    7.2824   -2.0476 H   0  0  0  0  0  0  0  0  0  0  0  0
    4.2452    7.5139   -1.8367 H   0  0  0  0  0  0  0  0  0  0  0  0
    2.3644    8.4641    0.2042 H   0  0  0  0  0  0  0  0  0  0  0  0
    1.9316   10.6590    1.2413 H   0  0  0  0  0  0  0  0  0  0  0  0
    3.3154   12.6384   -2.3054 H   0  0  0  0  0  0  0  0  0  0  0  0
    1.1319    8.2477   -7.9131 H   0  0  0  0  0  0  0  0  0  0  0  0
    1.1086    8.4570  -10.3800 H   0  0  0  0  0  0  0  0  0  0  0  0
  1  2  1  0  0  0  0
  2  3  1  0  0  0  0
  2  4  1  0  0  0  0
  2  5  1  0  0  0  0
  5  6  2  0  0  0  0
  5 38  1  0  0  0  0
  6  7  1  0  0  0  0
  6 39  1  0  0  0  0
  7  8  2  0  0  0  0
  8  9  1  0  0  0  0
  8 37  1  0  0  0  0
  9 10  1  0  0  0  0
  9 40  1  0  0  0  0
 10 11  2  0  0  0  0
 10 12  1  0  0  0  0
 12 13  1  0  0  0  0
 12 41  1  0  0  0  0
 12 42  1  0  0  0  0
 13 14  1  0  0  0  0
 13 31  1  0  0  0  0
 14 15  1  0  0  0  0
 14 43  1  0  0  0  0
 14 44  1  0  0  0  0
 15 29  1  0  0  0  0
 15 16  1  0  0  0  0
 15 45  1  6  0  0  0
 16 17  2  0  0  0  0
 16 18  1  0  0  0  0
 18 19  1  0  0  0  0
 18 46  1  0  0  0  0
 19 20  2  0  0  0  0
 19 28  1  0  0  0  0
 20 21  1  0  0  0  0
 20 25  1  0  0  0  0
 21 22  2  0  0  0  0
 21 47  1  0  0  0  0
 22 23  1  0  0  0  0
 22 48  1  0  0  0  0
 23 24  2  0  0  0  0
 23 49  1  0  0  0  0
 24 25  1  0  0  0  0
 24 50  1  0  0  0  0
 25 26  2  0  0  0  0
 26 27  1  0  0  0  0
 26 51  1  0  0  0  0
 27 28  2  0  0  0  0
 28 52  1  0  0  0  0
 29 30  2  0  0  0  0
 29 36  1  0  0  0  0
 30 31  1  0  0  0  0
 30 32  1  0  0  0  0
 31 53  1  0  0  0  0
 31 54  1  0  0  0  0
 32 33  2  0  0  0  0
 32 55  1  0  0  0  0
 33 34  1  0  0  0  0
 33 56  1  0  0  0  0
 34 35  1  0  0  0  0
 34 36  2  0  0  0  0
 36 57  1  0  0  0  0
 37 38  2  0  0  0  0
 37 58  1  0  0  0  0
 38 59  1  0  0  0  0
M  END
$$$$
