
 OpenBabel07202414143D

 54 58  0  0  1  0  0  0  0  0999 V2000
    0.9892   -0.1698    0.0771 C   0  0  0  0  0  0  0  0  0  0  0  0
    2.4178    0.0145    0.0710 N   0  0  0  0  0  0  0  0  0  0  0  0
    2.9820    1.0310   -0.6769 C   0  0  0  0  0  0  0  0  0  0  0  0
    2.3051    1.8412   -1.3074 O   0  0  0  0  0  0  0  0  0  0  0  0
    4.5242    1.0499   -0.6353 C   0  0  0  0  0  0  0  0  0  0  0  0
    5.1092    1.3724   -1.9446 N   0  0  0  0  0  0  0  0  0  0  0  0
    6.5717    1.4387   -1.9120 C   0  0  0  0  0  0  0  0  0  0  0  0
    7.2872    0.1107   -2.0806 C   0  0  0  0  0  0  0  0  0  0  0  0
    8.6589    0.0523   -1.7739 C   0  0  0  0  0  0  0  0  0  0  0  0
    9.3970   -1.1077   -2.0095 C   0  0  0  0  0  0  0  0  0  0  0  0
    8.7659   -2.2261   -2.5391 C   0  0  0  0  0  0  0  0  0  0  0  0
    9.6791   -3.6445   -2.8804 Cl  0  0  0  0  0  0  0  0  0  0  0  0
    7.4041   -2.1949   -2.8357 C   0  0  0  0  0  0  0  0  0  0  0  0
    6.6518   -1.0196   -2.6402 C   0  0  0  0  0  0  0  0  0  0  0  0
    5.1934   -0.9398   -3.0876 C   0  0  1  0  0  0  0  0  0  0  0  0
    5.0463   -1.3671   -4.5554 C   0  0  0  0  0  0  0  0  0  0  0  0
    4.2685   -2.6481   -4.5490 C   0  0  0  0  0  0  0  0  0  0  0  0
    3.7483   -2.8732   -3.2376 N   0  0  0  0  0  0  0  0  0  0  0  0
    2.7172   -3.8563   -2.9918 C   0  0  0  0  0  0  0  0  0  0  0  0
    2.0720   -3.8942   -1.7503 C   0  0  0  0  0  0  0  0  0  0  0  0
    0.9203   -4.5565   -1.4872 N   0  0  0  0  0  0  0  0  0  0  0  0
    0.4184   -5.3108   -2.4796 C   0  0  0  0  0  0  0  0  0  0  0  0
    1.0579   -5.5390   -3.6923 C   0  0  0  0  0  0  0  0  0  0  0  0
    0.5407   -6.5149   -4.5782 C   0  0  0  0  0  0  0  0  0  0  0  0
    1.1609   -6.7974   -5.7892 C   0  0  0  0  0  0  0  0  0  0  0  0
    2.2781   -6.0680   -6.1287 C   0  0  0  0  0  0  0  0  0  0  0  0
    2.8927   -6.2935   -7.3021 F   0  0  0  0  0  0  0  0  0  0  0  0
    2.7924   -5.1092   -5.2719 C   0  0  0  0  0  0  0  0  0  0  0  0
    2.2245   -4.7957   -3.9934 C   0  0  0  0  0  0  0  0  0  0  0  0
    4.2789   -1.9364   -2.3298 C   0  0  0  0  0  0  0  0  0  0  0  0
    4.0853   -1.9113   -1.1147 O   0  0  0  0  0  0  0  0  0  0  0  0
    4.6624    0.5195   -3.0445 C   0  0  0  0  0  0  0  0  0  0  0  0
    0.7349   -0.9072    0.8416 H   0  0  0  0  0  0  0  0  0  0  0  0
    0.6711   -0.5247   -0.9064 H   0  0  0  0  0  0  0  0  0  0  0  0
    0.4945    0.7809    0.2974 H   0  0  0  0  0  0  0  0  0  0  0  0
    2.9956   -0.8172    0.1840 H   0  0  0  0  0  0  0  0  0  0  0  0
    4.9224    0.1144   -0.2362 H   0  0  0  0  0  0  0  0  0  0  0  0
    4.7862    1.8363    0.0821 H   0  0  0  0  0  0  0  0  0  0  0  0
    6.9072    1.9344   -0.9925 H   0  0  0  0  0  0  0  0  0  0  0  0
    6.8994    2.0835   -2.7390 H   0  0  0  0  0  0  0  0  0  0  0  0
    9.1681    0.9290   -1.3764 H   0  0  0  0  0  0  0  0  0  0  0  0
   10.4616   -1.1253   -1.7924 H   0  0  0  0  0  0  0  0  0  0  0  0
    6.9430   -3.0850   -3.2565 H   0  0  0  0  0  0  0  0  0  0  0  0
    5.9990   -1.4972   -5.0818 H   0  0  0  0  0  0  0  0  0  0  0  0
    4.4858   -0.6381   -5.1537 H   0  0  0  0  0  0  0  0  0  0  0  0
    4.9505   -3.4639   -4.7951 H   0  0  0  0  0  0  0  0  0  0  0  0
    3.4398   -2.5520   -5.2565 H   0  0  0  0  0  0  0  0  0  0  0  0
    2.4440   -3.3704   -0.8778 H   0  0  0  0  0  0  0  0  0  0  0  0
   -0.5470   -5.7580   -2.2570 H   0  0  0  0  0  0  0  0  0  0  0  0
   -0.3403   -7.0932   -4.3063 H   0  0  0  0  0  0  0  0  0  0  0  0
    0.8021   -7.5763   -6.4481 H   0  0  0  0  0  0  0  0  0  0  0  0
    3.6870   -4.6437   -5.6525 H   0  0  0  0  0  0  0  0  0  0  0  0
    3.5711    0.5305   -3.1493 H   0  0  0  0  0  0  0  0  0  0  0  0
    5.0171    1.0377   -3.9487 H   0  0  0  0  0  0  0  0  0  0  0  0
  1  2  1  0  0  0  0
  1 33  1  0  0  0  0
  1 34  1  0  0  0  0
  1 35  1  0  0  0  0
  2  3  1  0  0  0  0
  2 36  1  0  0  0  0
  3  4  2  0  0  0  0
  3  5  1  0  0  0  0
  5  6  1  0  0  0  0
  5 37  1  0  0  0  0
  5 38  1  0  0  0  0
  6  7  1  0  0  0  0
  6 32  1  0  0  0  0
  7  8  1  0  0  0  0
  7 39  1  0  0  0  0
  7 40  1  0  0  0  0
  8  9  1  0  0  0  0
  8 14  2  0  0  0  0
  9 10  2  0  0  0  0
  9 41  1  0  0  0  0
 10 11  1  0  0  0  0
 10 42  1  0  0  0  0
 11 12  1  0  0  0  0
 11 13  2  0  0  0  0
 13 14  1  0  0  0  0
 13 43  1  0  0  0  0
 15 14  1  1  0  0  0
 15 16  1  0  0  0  0
 15 30  1  0  0  0  0
 15 32  1  0  0  0  0
 16 17  1  0  0  0  0
 16 44  1  0  0  0  0
 16 45  1  0  0  0  0
 17 18  1  0  0  0  0
 17 46  1  0  0  0  0
 17 47  1  0  0  0  0
 18 19  1  0  0  0  0
 18 30  1  0  0  0  0
 19 20  1  0  0  0  0
 19 29  2  0  0  0  0
 20 21  2  0  0  0  0
 20 48  1  0  0  0  0
 21 22  1  0  0  0  0
 22 23  2  0  0  0  0
 22 49  1  0  0  0  0
 23 24  1  0  0  0  0
 23 29  1  0  0  0  0
 24 25  2  0  0  0  0
 24 50  1  0  0  0  0
 25 26  1  0  0  0  0
 25 51  1  0  0  0  0
 26 27  1  0  0  0  0
 26 28  2  0  0  0  0
 28 29  1  0  0  0  0
 28 52  1  0  0  0  0
 30 31  2  0  0  0  0
 32 53  1  0  0  0  0
 32 54  1  0  0  0  0
M  END
$$$$
