
 OpenBabel07202414173D

 36 39  0  0  1  0  0  0  0  0999 V2000
    1.1152   -0.0151    0.0058 Cl  0  0  0  0  0  0  0  0  0  0  0  0
    2.8340   -0.0652    0.0269 C   0  0  0  0  0  0  0  0  0  0  0  0
    3.5601    1.1218   -0.0260 C   0  0  0  0  0  0  0  0  0  0  0  0
    4.9543    1.0788   -0.0020 C   0  0  0  0  0  0  0  0  0  0  0  0
    5.6190   -0.1473    0.0791 C   0  0  0  0  0  0  0  0  0  0  0  0
    4.8959   -1.3469    0.1134 C   0  0  0  0  0  0  0  0  0  0  0  0
    3.4909   -1.2952    0.0946 C   0  0  0  0  0  0  0  0  0  0  0  0
    5.6136   -2.6793    0.1653 C   0  0  3  0  0  0  0  0  0  0  0  0
    5.6200   -3.3840    1.5310 C   0  0  0  0  0  0  0  0  0  0  0  0
    5.9164   -4.5777    1.6161 O   0  0  0  0  0  0  0  0  0  0  0  0
    5.3455   -2.5844    2.6087 N   0  0  0  0  0  0  0  0  0  0  0  0
    5.3795   -3.0339    3.9093 C   0  0  0  0  0  0  0  0  0  0  0  0
    4.3453   -2.7408    4.6890 N   0  0  0  0  0  0  0  0  0  0  0  0
    4.7155   -3.2077    5.8921 N   0  0  0  0  0  0  0  0  0  0  0  0
    6.0422   -3.5122    5.9670 C   0  0  0  0  0  0  0  0  0  0  0  0
    6.8955   -3.7022    7.0499 C   0  0  0  0  0  0  0  0  0  0  0  0
    8.1985   -4.0184    6.6978 C   0  0  0  0  0  0  0  0  0  0  0  0
    8.6327   -4.2213    5.4309 N   0  0  0  0  0  0  0  0  0  0  0  0
    7.7685   -4.0312    4.3926 C   0  0  0  0  0  0  0  0  0  0  0  0
    6.4677   -3.5966    4.6356 C   0  0  0  0  0  0  0  0  0  0  0  0
    7.0619   -2.4918   -0.2889 C   0  0  0  0  0  0  0  0  0  0  0  0
    7.6619   -1.2893    0.4206 C   0  0  0  0  0  0  0  0  0  0  0  0
    6.9847   -0.0778    0.0818 O   0  0  0  0  0  0  0  0  0  0  0  0
    3.0519    2.0802   -0.0889 H   0  0  0  0  0  0  0  0  0  0  0  0
    5.5266    2.0012   -0.0478 H   0  0  0  0  0  0  0  0  0  0  0  0
    2.9074   -2.2132    0.1280 H   0  0  0  0  0  0  0  0  0  0  0  0
    5.1145   -3.3610   -0.5363 H   0  0  0  0  0  0  0  0  0  0  0  0
    4.6406   -1.8671    2.4867 H   0  0  0  0  0  0  0  0  0  0  0  0
    4.0241   -3.2345    6.6325 H   0  0  0  0  0  0  0  0  0  0  0  0
    6.5899   -3.5482    8.0768 H   0  0  0  0  0  0  0  0  0  0  0  0
    8.9655   -4.1091    7.4644 H   0  0  0  0  0  0  0  0  0  0  0  0
    8.1770   -4.1824    3.3996 H   0  0  0  0  0  0  0  0  0  0  0  0
    7.0763   -2.3099   -1.3723 H   0  0  0  0  0  0  0  0  0  0  0  0
    7.6617   -3.3878   -0.0948 H   0  0  0  0  0  0  0  0  0  0  0  0
    8.7077   -1.1709    0.1168 H   0  0  0  0  0  0  0  0  0  0  0  0
    7.6617   -1.4046    1.5114 H   0  0  0  0  0  0  0  0  0  0  0  0
  1  2  1  0  0  0  0
  2  3  1  0  0  0  0
  2  7  2  0  0  0  0
  3  4  2  0  0  0  0
  3 24  1  0  0  0  0
  4  5  1  0  0  0  0
  4 25  1  0  0  0  0
  5  6  2  0  0  0  0
  5 23  1  0  0  0  0
  6  7  1  0  0  0  0
  6  8  1  0  0  0  0
  7 26  1  0  0  0  0
  8  9  1  0  0  0  0
  8 21  1  0  0  0  0
  8 27  1  0  0  0  0
  9 10  2  0  0  0  0
  9 11  1  0  0  0  0
 11 12  1  0  0  0  0
 11 28  1  0  0  0  0
 12 13  2  0  0  0  0
 12 20  1  0  0  0  0
 13 14  1  0  0  0  0
 14 15  1  0  0  0  0
 14 29  1  0  0  0  0
 15 16  1  0  0  0  0
 15 20  2  0  0  0  0
 16 17  2  0  0  0  0
 16 30  1  0  0  0  0
 17 18  1  0  0  0  0
 17 31  1  0  0  0  0
 18 19  2  0  0  0  0
 19 20  1  0  0  0  0
 19 32  1  0  0  0  0
 21 22  1  0  0  0  0
 21 33  1  0  0  0  0
 21 34  1  0  0  0  0
 22 23  1  0  0  0  0
 22 35  1  0  0  0  0
 22 36  1  0  0  0  0
M  END
$$$$
