
 OpenBabel07202414143D

 65 69  0  0  1  0  0  0  0  0999 V2000
    8.8268    8.3976   -5.7455 C   0  0  0  0  0  0  0  0  0  0  0  0
    7.3907    8.3318   -6.0044 N   0  0  0  0  0  0  0  0  0  0  0  0
    6.3626    8.1280   -4.6860 S   0  0  0  0  0  0  0  0  0  0  0  0
    6.8036    9.0113   -3.6361 O   0  0  0  0  0  0  0  0  0  0  0  0
    5.0007    8.1719   -5.1872 O   0  0  0  0  0  0  0  0  0  0  0  0
    6.6828    6.4708   -4.1740 C   0  0  0  0  0  0  0  0  0  0  0  0
    7.2051    6.2046   -2.9006 C   0  0  0  0  0  0  0  0  0  0  0  0
    7.3777    4.8764   -2.4761 C   0  0  0  0  0  0  0  0  0  0  0  0
    7.9174    4.5744   -1.0919 C   0  0  0  0  0  0  0  0  0  0  0  0
    9.3779    4.4429   -1.0997 N   0  0  0  0  0  0  0  0  0  0  0  0
    9.9113    4.2472    0.2679 C   0  0  0  0  0  0  0  0  0  0  0  0
   11.4822    4.1378    0.3410 C   0  0  2  0  0  0  0  0  0  0  0  0
   12.1087    5.4788   -0.1625 C   0  0  0  0  0  0  0  0  0  0  0  0
   11.3957    6.4100   -0.5359 O   0  0  0  0  0  0  0  0  0  0  0  0
   13.4954    5.5230   -0.1428 N   0  0  0  0  0  0  0  0  0  0  0  0
   14.3377    6.5330   -0.6920 C   0  0  0  0  0  0  0  0  0  0  0  0
   13.8421    7.6749   -1.3253 C   0  0  0  0  0  0  0  0  0  0  0  0
   14.5935    8.5541   -2.0311 N   0  0  0  0  0  0  0  0  0  0  0  0
   15.9213    8.3332   -2.0474 C   0  0  0  0  0  0  0  0  0  0  0  0
   16.5588    7.3245   -1.3294 C   0  0  0  0  0  0  0  0  0  0  0  0
   17.9626    7.2622   -1.2708 C   0  0  0  0  0  0  0  0  0  0  0  0
   18.5993    6.2653   -0.5382 C   0  0  0  0  0  0  0  0  0  0  0  0
   17.8399    5.3008    0.1090 C   0  0  0  0  0  0  0  0  0  0  0  0
   16.4427    5.3513    0.0535 C   0  0  0  0  0  0  0  0  0  0  0  0
   15.7553    6.3779   -0.6467 C   0  0  0  0  0  0  0  0  0  0  0  0
   11.9786    2.9677   -0.5454 C   0  0  0  0  0  0  0  0  0  0  0  0
   11.7149    1.6318    0.1293 C   0  0  0  0  0  0  0  0  0  0  0  0
   12.4274    1.5174    1.3590 O   0  0  0  0  0  0  0  0  0  0  0  0
   12.2939    2.5812    2.2049 C   0  0  0  0  0  0  0  0  0  0  0  0
   12.6463    2.3263    3.5332 C   0  0  0  0  0  0  0  0  0  0  0  0
   12.5907    3.3404    4.4865 C   0  0  0  0  0  0  0  0  0  0  0  0
   12.1942    4.6159    4.0984 C   0  0  0  0  0  0  0  0  0  0  0  0
   12.1525    5.8825    5.2616 Cl  0  0  0  0  0  0  0  0  0  0  0  0
   11.8364    4.8788    2.7728 C   0  0  0  0  0  0  0  0  0  0  0  0
   11.8834    3.8607    1.7987 C   0  0  0  0  0  0  0  0  0  0  0  0
    7.0337    3.8367   -3.3580 C   0  0  0  0  0  0  0  0  0  0  0  0
    6.5252    4.1138   -4.6355 C   0  0  0  0  0  0  0  0  0  0  0  0
    6.3528    5.4340   -5.0355 C   0  0  0  0  0  0  0  0  0  0  0  0
    5.8934    5.6747   -6.2716 F   0  0  0  0  0  0  0  0  0  0  0  0
    9.3486    8.5723   -6.6913 H   0  0  0  0  0  0  0  0  0  0  0  0
    9.1951    7.4585   -5.3271 H   0  0  0  0  0  0  0  0  0  0  0  0
    9.0633    9.2273   -5.0747 H   0  0  0  0  0  0  0  0  0  0  0  0
    7.0881    7.7870   -6.8104 H   0  0  0  0  0  0  0  0  0  0  0  0
    7.4589    7.0257   -2.2333 H   0  0  0  0  0  0  0  0  0  0  0  0
    7.4576    3.6476   -0.7259 H   0  0  0  0  0  0  0  0  0  0  0  0
    7.6018    5.3742   -0.4093 H   0  0  0  0  0  0  0  0  0  0  0  0
    9.7634    5.3322   -1.4437 H   0  0  0  0  0  0  0  0  0  0  0  0
    9.4615    3.3397    0.6898 H   0  0  0  0  0  0  0  0  0  0  0  0
    9.5780    5.0809    0.9009 H   0  0  0  0  0  0  0  0  0  0  0  0
   13.9624    4.7107    0.2339 H   0  0  0  0  0  0  0  0  0  0  0  0
   12.7937    7.9506   -1.3011 H   0  0  0  0  0  0  0  0  0  0  0  0
   16.4829    9.0252   -2.6711 H   0  0  0  0  0  0  0  0  0  0  0  0
   18.5704    8.0179   -1.7660 H   0  0  0  0  0  0  0  0  0  0  0  0
   19.6840    6.2480   -0.4651 H   0  0  0  0  0  0  0  0  0  0  0  0
   18.3310    4.5149    0.6779 H   0  0  0  0  0  0  0  0  0  0  0  0
   15.9068    4.5862    0.6056 H   0  0  0  0  0  0  0  0  0  0  0  0
   13.0588    3.0416   -0.7208 H   0  0  0  0  0  0  0  0  0  0  0  0
   11.5105    2.9864   -1.5354 H   0  0  0  0  0  0  0  0  0  0  0  0
   12.0721    0.8223   -0.5172 H   0  0  0  0  0  0  0  0  0  0  0  0
   10.6509    1.4446    0.3099 H   0  0  0  0  0  0  0  0  0  0  0  0
   12.9568    1.3248    3.8292 H   0  0  0  0  0  0  0  0  0  0  0  0
   12.8590    3.1304    5.5186 H   0  0  0  0  0  0  0  0  0  0  0  0
   11.5289    5.8876    2.5044 H   0  0  0  0  0  0  0  0  0  0  0  0
    7.1562    2.7998   -3.0509 H   0  0  0  0  0  0  0  0  0  0  0  0
    6.2565    3.3084   -5.3085 H   0  0  0  0  0  0  0  0  0  0  0  0
  1  2  1  0  0  0  0
  1 40  1  0  0  0  0
  1 41  1  0  0  0  0
  1 42  1  0  0  0  0
  2  3  1  0  0  0  0
  2 43  1  0  0  0  0
  3  4  2  0  0  0  0
  3  5  2  0  0  0  0
  3  6  1  0  0  0  0
  6  7  1  0  0  0  0
  6 38  2  0  0  0  0
  7  8  2  0  0  0  0
  7 44  1  0  0  0  0
  8  9  1  0  0  0  0
  8 36  1  0  0  0  0
  9 10  1  0  0  0  0
  9 45  1  0  0  0  0
  9 46  1  0  0  0  0
 10 11  1  0  0  0  0
 10 47  1  0  0  0  0
 11 12  1  0  0  0  0
 11 48  1  0  0  0  0
 11 49  1  0  0  0  0
 12 13  1  6  0  0  0
 12 26  1  0  0  0  0
 12 35  1  0  0  0  0
 13 14  2  0  0  0  0
 13 15  1  0  0  0  0
 15 16  1  0  0  0  0
 15 50  1  0  0  0  0
 16 17  1  0  0  0  0
 16 25  2  0  0  0  0
 17 18  2  0  0  0  0
 17 51  1  0  0  0  0
 18 19  1  0  0  0  0
 19 20  2  0  0  0  0
 19 52  1  0  0  0  0
 20 21  1  0  0  0  0
 20 25  1  0  0  0  0
 21 22  2  0  0  0  0
 21 53  1  0  0  0  0
 22 23  1  0  0  0  0
 22 54  1  0  0  0  0
 23 24  2  0  0  0  0
 23 55  1  0  0  0  0
 24 25  1  0  0  0  0
 24 56  1  0  0  0  0
 26 27  1  0  0  0  0
 26 57  1  0  0  0  0
 26 58  1  0  0  0  0
 27 28  1  0  0  0  0
 27 59  1  0  0  0  0
 27 60  1  0  0  0  0
 28 29  1  0  0  0  0
 29 30  1  0  0  0  0
 29 35  2  0  0  0  0
 30 31  2  0  0  0  0
 30 61  1  0  0  0  0
 31 32  1  0  0  0  0
 31 62  1  0  0  0  0
 32 33  1  0  0  0  0
 32 34  2  0  0  0  0
 34 35  1  0  0  0  0
 34 63  1  0  0  0  0
 36 37  2  0  0  0  0
 36 64  1  0  0  0  0
 37 38  1  0  0  0  0
 37 65  1  0  0  0  0
 38 39  1  0  0  0  0
M  END
$$$$
