
 OpenBabel07202414143D

 52 55  0  0  1  0  0  0  0  0999 V2000
    1.1691   -0.3838    2.7514 C   0  0  0  0  0  0  0  0  0  0  0  0
    2.4627    0.1467    2.4129 N   0  0  0  0  0  0  0  0  0  0  0  0
    3.3801   -0.6069    1.7085 C   0  0  0  0  0  0  0  0  0  0  0  0
    3.1689   -1.7646    1.3601 O   0  0  0  0  0  0  0  0  0  0  0  0
    4.6807    0.1440    1.3887 C   0  0  2  0  0  0  0  0  0  0  0  0
    5.5465   -0.5705    0.3550 C   0  0  0  0  0  0  0  0  0  0  0  0
    5.4510    0.4779    2.6006 N   0  0  0  0  0  0  0  0  0  0  0  0
    5.9974   -0.5725    3.4648 C   0  0  0  0  0  0  0  0  0  0  0  0
    7.3934   -0.2106    3.9956 C   0  0  2  0  0  0  0  0  0  0  0  0
    7.7218   -1.1214    5.1950 C   0  0  0  0  0  0  0  0  0  0  0  0
    8.2425   -2.2176    4.9973 O   0  0  0  0  0  0  0  0  0  0  0  0
    7.3396   -0.6310    6.4353 N   0  0  0  0  0  0  0  0  0  0  0  0
    7.4416   -1.2738    7.7032 C   0  0  0  0  0  0  0  0  0  0  0  0
    7.9354   -2.5692    7.8605 C   0  0  0  0  0  0  0  0  0  0  0  0
    7.8768   -3.2792    9.0126 N   0  0  0  0  0  0  0  0  0  0  0  0
    7.3346   -2.6588   10.0788 C   0  0  0  0  0  0  0  0  0  0  0  0
    6.9186   -1.3300   10.0890 C   0  0  0  0  0  0  0  0  0  0  0  0
    6.4674   -0.7272   11.2783 C   0  0  0  0  0  0  0  0  0  0  0  0
    6.1017    0.6153   11.3007 C   0  0  0  0  0  0  0  0  0  0  0  0
    6.1649    1.3611   10.1321 C   0  0  0  0  0  0  0  0  0  0  0  0
    6.5890    0.7640    8.9389 C   0  0  0  0  0  0  0  0  0  0  0  0
    6.9795   -0.6005    8.8763 C   0  0  0  0  0  0  0  0  0  0  0  0
    7.5296    1.2781    4.2854 C   0  0  0  0  0  0  0  0  0  0  0  0
    8.7284    1.7848    4.8191 C   0  0  0  0  0  0  0  0  0  0  0  0
    8.8629    3.1497    5.0754 C   0  0  0  0  0  0  0  0  0  0  0  0
   10.3548    3.7591    5.6725 Cl  0  0  0  0  0  0  0  0  0  0  0  0
    7.8074    4.0233    4.8314 C   0  0  0  0  0  0  0  0  0  0  0  0
    6.6227    3.5399    4.2745 C   0  0  0  0  0  0  0  0  0  0  0  0
    6.4941    2.1787    3.9700 C   0  0  0  0  0  0  0  0  0  0  0  0
    5.3409    1.7510    3.1314 C   0  0  0  0  0  0  0  0  0  0  0  0
    4.4320    2.5260    2.8515 O   0  0  0  0  0  0  0  0  0  0  0  0
    0.5988    0.3808    3.2829 H   0  0  0  0  0  0  0  0  0  0  0  0
    1.3005   -1.2642    3.3863 H   0  0  0  0  0  0  0  0  0  0  0  0
    0.6440   -0.6756    1.8371 H   0  0  0  0  0  0  0  0  0  0  0  0
    2.6767    1.1267    2.5929 H   0  0  0  0  0  0  0  0  0  0  0  0
    4.3751    1.0923    0.9167 H   0  0  0  0  0  0  0  0  0  0  0  0
    5.7958   -1.5900    0.6602 H   0  0  0  0  0  0  0  0  0  0  0  0
    6.4817   -0.0253    0.1903 H   0  0  0  0  0  0  0  0  0  0  0  0
    5.0179   -0.6334   -0.6026 H   0  0  0  0  0  0  0  0  0  0  0  0
    6.0382   -1.5239    2.9242 H   0  0  0  0  0  0  0  0  0  0  0  0
    5.2860   -0.7039    4.2910 H   0  0  0  0  0  0  0  0  0  0  0  0
    8.1260   -0.4303    3.2066 H   0  0  0  0  0  0  0  0  0  0  0  0
    6.8803    0.2679    6.4451 H   0  0  0  0  0  0  0  0  0  0  0  0
    8.4049   -3.1188    7.0521 H   0  0  0  0  0  0  0  0  0  0  0  0
    7.2555   -3.2827   10.9664 H   0  0  0  0  0  0  0  0  0  0  0  0
    6.4239   -1.2973   12.2048 H   0  0  0  0  0  0  0  0  0  0  0  0
    5.7840    1.0798   12.2310 H   0  0  0  0  0  0  0  0  0  0  0  0
    5.8965    2.4150   10.1474 H   0  0  0  0  0  0  0  0  0  0  0  0
    6.6469    1.4092    8.0675 H   0  0  0  0  0  0  0  0  0  0  0  0
    9.5698    1.1201    5.0085 H   0  0  0  0  0  0  0  0  0  0  0  0
    7.9139    5.0877    5.0243 H   0  0  0  0  0  0  0  0  0  0  0  0
    5.8240    4.2359    4.0228 H   0  0  0  0  0  0  0  0  0  0  0  0
  1  2  1  0  0  0  0
  1 32  1  0  0  0  0
  1 33  1  0  0  0  0
  1 34  1  0  0  0  0
  2  3  1  0  0  0  0
  2 35  1  0  0  0  0
  3  4  2  0  0  0  0
  5  7  1  0  0  0  0
  5  6  1  0  0  0  0
  5  3  1  0  0  0  0
  5 36  1  6  0  0  0
  6 37  1  0  0  0  0
  6 38  1  0  0  0  0
  6 39  1  0  0  0  0
  7  8  1  0  0  0  0
  7 30  1  0  0  0  0
  8  9  1  0  0  0  0
  8 40  1  0  0  0  0
  8 41  1  0  0  0  0
  9 23  1  0  0  0  0
  9 10  1  0  0  0  0
  9 42  1  6  0  0  0
 10 11  2  0  0  0  0
 10 12  1  0  0  0  0
 12 13  1  0  0  0  0
 12 43  1  0  0  0  0
 13 14  1  0  0  0  0
 13 22  2  0  0  0  0
 14 15  2  0  0  0  0
 14 44  1  0  0  0  0
 15 16  1  0  0  0  0
 16 17  2  0  0  0  0
 16 45  1  0  0  0  0
 17 18  1  0  0  0  0
 17 22  1  0  0  0  0
 18 19  2  0  0  0  0
 18 46  1  0  0  0  0
 19 20  1  0  0  0  0
 19 47  1  0  0  0  0
 20 21  2  0  0  0  0
 20 48  1  0  0  0  0
 21 22  1  0  0  0  0
 21 49  1  0  0  0  0
 23 24  1  0  0  0  0
 23 29  2  0  0  0  0
 24 25  2  0  0  0  0
 24 50  1  0  0  0  0
 25 26  1  0  0  0  0
 25 27  1  0  0  0  0
 27 28  2  0  0  0  0
 27 51  1  0  0  0  0
 28 29  1  0  0  0  0
 28 52  1  0  0  0  0
 29 30  1  0  0  0  0
 30 31  2  0  0  0  0
M  END
$$$$
