
 OpenBabel07202414203D

 37 40  0  0  1  0  0  0  0  0999 V2000
   -0.9722    0.8550    1.4983 C   0  0  0  0  0  0  0  0  0  0  0  0
   -1.7122    1.6265    2.4096 C   0  0  0  0  0  0  0  0  0  0  0  0
   -2.9728    1.2012    2.8437 C   0  0  0  0  0  0  0  0  0  0  0  0
   -3.4662    0.0018    2.3526 C   0  0  0  0  0  0  0  0  0  0  0  0
   -2.7275   -0.7507    1.4583 C   0  0  0  0  0  0  0  0  0  0  0  0
   -1.4801   -0.3524    1.0140 C   0  0  0  0  0  0  0  0  0  0  0  0
   -3.5616   -1.9495    1.1952 C   0  0  3  0  0  0  0  0  0  0  0  0
   -4.7803   -1.6851    2.0163 N   0  0  0  0  0  0  0  0  0  0  0  0
   -4.6979   -0.5913    2.6606 N   0  0  0  0  0  0  0  0  0  0  0  0
   -3.9436   -2.0670   -0.1822 N   0  0  0  0  0  0  0  0  0  0  0  0
   -3.1311   -2.6786   -1.1020 C   0  0  0  0  0  0  0  0  0  0  0  0
   -2.0447   -3.1710   -0.8065 O   0  0  0  0  0  0  0  0  0  0  0  0
   -3.6290   -2.6614   -2.5440 C   0  0  3  0  0  0  0  0  0  0  0  0
   -3.7552   -1.2272   -3.0529 C   0  0  0  0  0  0  0  0  0  0  0  0
   -5.1756   -0.6873   -3.1843 C   0  0  0  0  0  0  0  0  0  0  0  0
   -6.2326   -1.4647   -2.6299 O   0  0  0  0  0  0  0  0  0  0  0  0
   -6.1190   -2.8125   -2.7897 C   0  0  0  0  0  0  0  0  0  0  0  0
   -4.8882   -3.4596   -2.7225 C   0  0  0  0  0  0  0  0  0  0  0  0
   -4.8535   -4.8636   -2.7311 C   0  0  0  0  0  0  0  0  0  0  0  0
   -6.0385   -5.5943   -2.8209 C   0  0  0  0  0  0  0  0  0  0  0  0
   -7.2642   -4.9396   -2.9099 C   0  0  0  0  0  0  0  0  0  0  0  0
   -7.3032   -3.5443   -2.8867 C   0  0  0  0  0  0  0  0  0  0  0  0
   -5.9867   -7.3136   -2.7913 Cl  0  0  0  0  0  0  0  0  0  0  0  0
    0.0084    1.1987    1.1736 H   0  0  0  0  0  0  0  0  0  0  0  0
   -1.3000    2.5607    2.7844 H   0  0  0  0  0  0  0  0  0  0  0  0
   -3.5481    1.7873    3.5494 H   0  0  0  0  0  0  0  0  0  0  0  0
   -0.9085   -0.9589    0.3175 H   0  0  0  0  0  0  0  0  0  0  0  0
   -3.0702   -2.8624    1.5475 H   0  0  0  0  0  0  0  0  0  0  0  0
   -4.8902   -1.8037   -0.4221 H   0  0  0  0  0  0  0  0  0  0  0  0
   -2.8401   -3.1419   -3.1419 H   0  0  0  0  0  0  0  0  0  0  0  0
   -3.2874   -1.1600   -4.0451 H   0  0  0  0  0  0  0  0  0  0  0  0
   -3.1624   -0.5390   -2.4353 H   0  0  0  0  0  0  0  0  0  0  0  0
   -5.2230    0.2900   -2.6884 H   0  0  0  0  0  0  0  0  0  0  0  0
   -5.4070   -0.4943   -4.2394 H   0  0  0  0  0  0  0  0  0  0  0  0
   -3.9036   -5.3869   -2.6379 H   0  0  0  0  0  0  0  0  0  0  0  0
   -8.1893   -5.5062   -2.9741 H   0  0  0  0  0  0  0  0  0  0  0  0
   -8.2594   -3.0290   -2.9300 H   0  0  0  0  0  0  0  0  0  0  0  0
  1  2  1  0  0  0  0
  1  6  2  0  0  0  0
  1 24  1  0  0  0  0
  2  3  2  0  0  0  0
  2 25  1  0  0  0  0
  3  4  1  0  0  0  0
  3 26  1  0  0  0  0
  4  5  2  0  0  0  0
  4  9  1  0  0  0  0
  5  6  1  0  0  0  0
  5  7  1  0  0  0  0
  6 27  1  0  0  0  0
  7  8  1  0  0  0  0
  7 10  1  0  0  0  0
  7 28  1  0  0  0  0
  8  9  2  0  0  0  0
 10 11  1  0  0  0  0
 10 29  1  0  0  0  0
 11 12  2  0  0  0  0
 11 13  1  0  0  0  0
 13 14  1  0  0  0  0
 13 18  1  0  0  0  0
 13 30  1  0  0  0  0
 14 15  1  0  0  0  0
 14 31  1  0  0  0  0
 14 32  1  0  0  0  0
 15 16  1  0  0  0  0
 15 33  1  0  0  0  0
 15 34  1  0  0  0  0
 16 17  1  0  0  0  0
 17 18  1  0  0  0  0
 17 22  2  0  0  0  0
 18 19  2  0  0  0  0
 19 20  1  0  0  0  0
 19 35  1  0  0  0  0
 20 21  2  0  0  0  0
 20 23  1  0  0  0  0
 21 22  1  0  0  0  0
 21 36  1  0  0  0  0
 22 37  1  0  0  0  0
M  END
$$$$
