
 OpenBabel07202414123D

 60 63  0  0  1  0  0  0  0  0999 V2000
    0.7360   -0.6854    0.8845 C   0  0  0  0  0  0  0  0  0  0  0  0
    2.1098   -1.3274    0.7064 C   0  0  0  0  0  0  0  0  0  0  0  0
    2.2606   -1.8807   -0.7084 C   0  0  0  0  0  0  0  0  0  0  0  0
    3.0875   -0.2999    0.9335 O   0  0  0  0  0  0  0  0  0  0  0  0
    4.3701   -0.7034    1.1658 C   0  0  0  0  0  0  0  0  0  0  0  0
    5.3805    0.0774    0.6214 C   0  0  0  0  0  0  0  0  0  0  0  0
    6.7330   -0.2566    0.8229 C   0  0  0  0  0  0  0  0  0  0  0  0
    7.1288   -1.3378    1.6320 C   0  0  0  0  0  0  0  0  0  0  0  0
    8.5489   -1.6348    1.8820 N   0  0  0  0  0  0  0  0  0  0  0  0
    8.9908   -3.0056    2.3173 C   0  0  3  0  0  0  0  0  0  0  0  0
    8.9067   -3.1494    3.8839 C   0  0  0  0  0  0  0  0  0  0  0  0
    9.7520   -2.6958    4.6506 O   0  0  0  0  0  0  0  0  0  0  0  0
    7.7788   -3.7998    4.3565 N   0  0  0  0  0  0  0  0  0  0  0  0
    7.5518   -4.1083    5.7546 C   0  0  0  0  0  0  0  0  0  0  0  0
    6.1688   -4.7348    5.9288 C   0  0  0  0  0  0  0  0  0  0  0  0
    5.8527   -5.0603    7.3388 C   0  0  0  0  0  0  0  0  0  0  0  0
    6.0820   -6.2683    8.0343 C   0  0  0  0  0  0  0  0  0  0  0  0
    5.5703   -6.0335    9.2831 C   0  0  0  0  0  0  0  0  0  0  0  0
    5.0659   -4.7762    9.3395 O   0  0  0  0  0  0  0  0  0  0  0  0
    5.2421   -4.1589    8.1157 N   0  0  0  0  0  0  0  0  0  0  0  0
    8.4948   -4.2731    1.5936 C   0  0  0  0  0  0  0  0  0  0  0  0
    7.8379   -4.3125    0.3646 C   0  0  0  0  0  0  0  0  0  0  0  0
    7.3917   -5.5384   -0.1439 C   0  0  0  0  0  0  0  0  0  0  0  0
    7.6324   -6.6948    0.5792 C   0  0  0  0  0  0  0  0  0  0  0  0
    8.3389   -6.7141    1.7221 N   0  0  0  0  0  0  0  0  0  0  0  0
    8.7926   -5.5226    2.1659 C   0  0  0  0  0  0  0  0  0  0  0  0
    9.4506   -0.5180    1.9604 C   0  0  0  0  0  0  0  0  0  0  0  0
    9.0638    0.6459    1.8319 O   0  0  0  0  0  0  0  0  0  0  0  0
   10.8904   -0.6679    2.2241 C   0  0  0  0  0  0  0  0  0  0  0  0
   11.7574    0.4132    2.2456 C   0  0  0  0  0  0  0  0  0  0  0  0
   13.0039   -0.0162    2.5783 O   0  0  0  0  0  0  0  0  0  0  0  0
   12.8407   -1.3535    2.7410 C   0  0  0  0  0  0  0  0  0  0  0  0
   11.6270   -1.8008    2.4981 N   0  0  0  0  0  0  0  0  0  0  0  0
    6.0819   -2.0739    2.1919 C   0  0  0  0  0  0  0  0  0  0  0  0
    4.7277   -1.7779    1.9610 C   0  0  0  0  0  0  0  0  0  0  0  0
   -0.0680   -1.3955    0.6647 H   0  0  0  0  0  0  0  0  0  0  0  0
    0.6205    0.1911    0.2381 H   0  0  0  0  0  0  0  0  0  0  0  0
    0.6128   -0.3372    1.9161 H   0  0  0  0  0  0  0  0  0  0  0  0
    2.1797   -2.1386    1.4386 H   0  0  0  0  0  0  0  0  0  0  0  0
    2.3773   -1.0710   -1.4367 H   0  0  0  0  0  0  0  0  0  0  0  0
    1.4024   -2.4967   -0.9946 H   0  0  0  0  0  0  0  0  0  0  0  0
    3.1590   -2.5030   -0.7808 H   0  0  0  0  0  0  0  0  0  0  0  0
    5.1268    0.9570    0.0338 H   0  0  0  0  0  0  0  0  0  0  0  0
    7.4594    0.3760    0.3179 H   0  0  0  0  0  0  0  0  0  0  0  0
   10.0443   -3.0885    2.0699 H   0  0  0  0  0  0  0  0  0  0  0  0
    7.2145   -4.3158    3.6940 H   0  0  0  0  0  0  0  0  0  0  0  0
    7.6626   -3.1891    6.3394 H   0  0  0  0  0  0  0  0  0  0  0  0
    8.3393   -4.8037    6.0668 H   0  0  0  0  0  0  0  0  0  0  0  0
    6.1041   -5.6488    5.3226 H   0  0  0  0  0  0  0  0  0  0  0  0
    5.4046   -4.0592    5.5200 H   0  0  0  0  0  0  0  0  0  0  0  0
    6.5484   -7.1731    7.6779 H   0  0  0  0  0  0  0  0  0  0  0  0
    5.4860   -6.6105   10.1904 H   0  0  0  0  0  0  0  0  0  0  0  0
    7.6600   -3.4100   -0.2136 H   0  0  0  0  0  0  0  0  0  0  0  0
    6.8619   -5.5937   -1.0891 H   0  0  0  0  0  0  0  0  0  0  0  0
    7.2686   -7.6628    0.2451 H   0  0  0  0  0  0  0  0  0  0  0  0
    9.4073   -5.6090    3.0622 H   0  0  0  0  0  0  0  0  0  0  0  0
   11.6453    1.4787    2.0803 H   0  0  0  0  0  0  0  0  0  0  0  0
   13.7138   -1.9131    3.0475 H   0  0  0  0  0  0  0  0  0  0  0  0
    6.2526   -2.8630    2.8946 H   0  0  0  0  0  0  0  0  0  0  0  0
    3.9815   -2.3811    2.4662 H   0  0  0  0  0  0  0  0  0  0  0  0
  1  2  1  0  0  0  0
  1 36  1  0  0  0  0
  1 37  1  0  0  0  0
  1 38  1  0  0  0  0
  2  3  1  0  0  0  0
  2  4  1  0  0  0  0
  2 39  1  0  0  0  0
  3 40  1  0  0  0  0
  3 41  1  0  0  0  0
  3 42  1  0  0  0  0
  4  5  1  0  0  0  0
  5  6  1  0  0  0  0
  5 35  2  0  0  0  0
  6  7  2  0  0  0  0
  6 43  1  0  0  0  0
  7  8  1  0  0  0  0
  7 44  1  0  0  0  0
  8  9  1  0  0  0  0
  8 34  2  0  0  0  0
  9 10  1  0  0  0  0
  9 27  1  0  0  0  0
 10 11  1  0  0  0  0
 10 21  1  0  0  0  0
 10 45  1  0  0  0  0
 11 12  2  0  0  0  0
 11 13  1  0  0  0  0
 13 14  1  0  0  0  0
 13 46  1  0  0  0  0
 14 15  1  0  0  0  0
 14 47  1  0  0  0  0
 14 48  1  0  0  0  0
 15 16  1  0  0  0  0
 15 49  1  0  0  0  0
 15 50  1  0  0  0  0
 16 17  1  0  0  0  0
 16 20  2  0  0  0  0
 17 18  2  0  0  0  0
 17 51  1  0  0  0  0
 18 19  1  0  0  0  0
 18 52  1  0  0  0  0
 19 20  1  0  0  0  0
 21 22  1  0  0  0  0
 21 26  2  0  0  0  0
 22 23  2  0  0  0  0
 22 53  1  0  0  0  0
 23 24  1  0  0  0  0
 23 54  1  0  0  0  0
 24 25  2  0  0  0  0
 24 55  1  0  0  0  0
 25 26  1  0  0  0  0
 26 56  1  0  0  0  0
 27 28  2  0  0  0  0
 27 29  1  0  0  0  0
 29 30  2  0  0  0  0
 29 33  1  0  0  0  0
 30 31  1  0  0  0  0
 30 57  1  0  0  0  0
 31 32  1  0  0  0  0
 32 33  2  0  0  0  0
 32 58  1  0  0  0  0
 34 35  1  0  0  0  0
 34 59  1  0  0  0  0
 35 60  1  0  0  0  0
M  END
$$$$
