
 OpenBabel07202414183D

 33 35  0  0  0  0  0  0  0  0999 V2000
   -1.2106   -4.7086    1.1677 Cl  0  0  0  0  0  0  0  0  0  0  0  0
   -1.1452   -2.9916    1.2920 C   0  0  0  0  0  0  0  0  0  0  0  0
   -1.9443   -2.3625    2.2451 C   0  0  0  0  0  0  0  0  0  0  0  0
   -2.0001   -1.0254    2.4366 N   0  0  0  0  0  0  0  0  0  0  0  0
   -1.2253   -0.2727    1.6287 C   0  0  0  0  0  0  0  0  0  0  0  0
   -0.3996   -0.8059    0.6480 C   0  0  0  0  0  0  0  0  0  0  0  0
   -0.3374   -2.1979    0.4713 C   0  0  0  0  0  0  0  0  0  0  0  0
    0.5705   -2.7581   -0.5993 C   0  0  0  0  0  0  0  0  0  0  0  0
    2.0251   -2.3416   -0.4233 C   0  0  0  0  0  0  0  0  0  0  0  0
    2.3901   -1.1854   -0.6283 O   0  0  0  0  0  0  0  0  0  0  0  0
    2.8695   -3.3788   -0.0726 N   0  0  0  0  0  0  0  0  0  0  0  0
    4.2744   -3.2182    0.0271 C   0  0  0  0  0  0  0  0  0  0  0  0
    4.8368   -2.1076    0.6612 C   0  0  0  0  0  0  0  0  0  0  0  0
    6.1652   -1.9107    0.8201 N   0  0  0  0  0  0  0  0  0  0  0  0
    6.9767   -2.8505    0.2904 C   0  0  0  0  0  0  0  0  0  0  0  0
    6.5377   -3.9909   -0.3859 C   0  0  0  0  0  0  0  0  0  0  0  0
    7.4440   -4.9043   -0.9529 C   0  0  0  0  0  0  0  0  0  0  0  0
    6.9874   -6.0133   -1.6628 C   0  0  0  0  0  0  0  0  0  0  0  0
    5.6220   -6.2231   -1.8122 C   0  0  0  0  0  0  0  0  0  0  0  0
    4.7132   -5.3288   -1.2459 C   0  0  0  0  0  0  0  0  0  0  0  0
    5.1443   -4.1942   -0.5148 C   0  0  0  0  0  0  0  0  0  0  0  0
   -2.5858   -2.9392    2.9063 H   0  0  0  0  0  0  0  0  0  0  0  0
   -1.2820    0.7986    1.7884 H   0  0  0  0  0  0  0  0  0  0  0  0
    0.1927   -0.1302    0.0360 H   0  0  0  0  0  0  0  0  0  0  0  0
    0.2337   -2.3930   -1.5781 H   0  0  0  0  0  0  0  0  0  0  0  0
    0.5107   -3.8478   -0.6655 H   0  0  0  0  0  0  0  0  0  0  0  0
    2.5260   -4.3196   -0.2051 H   0  0  0  0  0  0  0  0  0  0  0  0
    4.2163   -1.3357    1.1090 H   0  0  0  0  0  0  0  0  0  0  0  0
    8.0374   -2.6456    0.4177 H   0  0  0  0  0  0  0  0  0  0  0  0
    8.5169   -4.7449   -0.8620 H   0  0  0  0  0  0  0  0  0  0  0  0
    7.6959   -6.7035   -2.1107 H   0  0  0  0  0  0  0  0  0  0  0  0
    5.2605   -7.0738   -2.3842 H   0  0  0  0  0  0  0  0  0  0  0  0
    3.6586   -5.5177   -1.4216 H   0  0  0  0  0  0  0  0  0  0  0  0
  1  2  1  0  0  0  0
  2  3  1  0  0  0  0
  2  7  2  0  0  0  0
  3  4  2  0  0  0  0
  3 22  1  0  0  0  0
  4  5  1  0  0  0  0
  5  6  2  0  0  0  0
  5 23  1  0  0  0  0
  6  7  1  0  0  0  0
  6 24  1  0  0  0  0
  7  8  1  0  0  0  0
  8  9  1  0  0  0  0
  8 25  1  0  0  0  0
  8 26  1  0  0  0  0
  9 10  2  0  0  0  0
  9 11  1  0  0  0  0
 11 12  1  0  0  0  0
 11 27  1  0  0  0  0
 12 13  1  0  0  0  0
 12 21  2  0  0  0  0
 13 14  2  0  0  0  0
 13 28  1  0  0  0  0
 14 15  1  0  0  0  0
 15 16  2  0  0  0  0
 15 29  1  0  0  0  0
 16 17  1  0  0  0  0
 16 21  1  0  0  0  0
 17 18  2  0  0  0  0
 17 30  1  0  0  0  0
 18 19  1  0  0  0  0
 18 31  1  0  0  0  0
 19 20  2  0  0  0  0
 19 32  1  0  0  0  0
 20 21  1  0  0  0  0
 20 33  1  0  0  0  0
M  END
$$$$
