
 OpenBabel07202414143D

 57 61  0  0  1  0  0  0  0  0999 V2000
    1.1925    1.4141   -2.0819 C   0  0  0  0  0  0  0  0  0  0  0  0
    2.6186    1.2594   -1.9858 N   0  0  0  0  0  0  0  0  0  0  0  0
    3.1917    0.1384   -1.4285 C   0  0  0  0  0  0  0  0  0  0  0  0
    2.5370   -0.8256   -1.0371 O   0  0  0  0  0  0  0  0  0  0  0  0
    4.7010    0.2487   -1.1859 C   0  0  0  0  0  0  0  0  0  0  0  0
    5.5278    0.5348   -2.3594 N   0  0  0  0  0  0  0  0  0  0  0  0
    5.9715   -0.5723   -3.1923 C   0  0  0  0  0  0  0  0  0  0  0  0
    7.3978   -0.3944   -3.7530 C   0  0  2  0  0  0  0  0  0  0  0  0
    7.5598   -1.2816   -5.0023 C   0  0  0  0  0  0  0  0  0  0  0  0
    8.5550   -2.3781   -4.6404 C   0  0  2  0  0  0  0  0  0  0  0  0
    7.8579   -3.7511   -4.5699 C   0  0  0  0  0  0  0  0  0  0  0  0
    6.7558   -3.7176   -3.6702 O   0  0  0  0  0  0  0  0  0  0  0  0
    9.1789   -1.9572   -3.3889 N   0  0  0  0  0  0  0  0  0  0  0  0
   10.1439   -2.8028   -2.7231 C   0  0  0  0  0  0  0  0  0  0  0  0
   10.1168   -2.9652   -1.3355 C   0  0  0  0  0  0  0  0  0  0  0  0
   10.6725   -4.0113   -0.6762 N   0  0  0  0  0  0  0  0  0  0  0  0
   11.3176   -4.9290   -1.4229 C   0  0  0  0  0  0  0  0  0  0  0  0
   11.5490   -4.7993   -2.7884 C   0  0  0  0  0  0  0  0  0  0  0  0
   12.2878   -5.7640   -3.5016 C   0  0  0  0  0  0  0  0  0  0  0  0
   12.5990   -5.5751   -4.8465 C   0  0  0  0  0  0  0  0  0  0  0  0
   12.2206   -4.3994   -5.4758 C   0  0  0  0  0  0  0  0  0  0  0  0
   11.4628   -3.4585   -4.7775 C   0  0  0  0  0  0  0  0  0  0  0  0
   11.0266   -3.6623   -3.4475 C   0  0  0  0  0  0  0  0  0  0  0  0
    8.4297   -0.9445   -2.7631 C   0  0  0  0  0  0  0  0  0  0  0  0
    8.5912   -0.5017   -1.6339 O   0  0  0  0  0  0  0  0  0  0  0  0
    7.6907    1.0650   -4.1003 C   0  0  0  0  0  0  0  0  0  0  0  0
    8.8738    1.4211   -4.7817 C   0  0  0  0  0  0  0  0  0  0  0  0
    9.0954    2.7361   -5.1909 C   0  0  0  0  0  0  0  0  0  0  0  0
   10.5348    3.1271   -6.0459 Cl  0  0  0  0  0  0  0  0  0  0  0  0
    8.1560    3.7232   -4.9197 C   0  0  0  0  0  0  0  0  0  0  0  0
    7.0119    3.4034   -4.1871 C   0  0  0  0  0  0  0  0  0  0  0  0
    6.7902    2.0870   -3.7527 C   0  0  0  0  0  0  0  0  0  0  0  0
    5.6613    1.8330   -2.8144 C   0  0  0  0  0  0  0  0  0  0  0  0
    4.9391    2.7507   -2.4370 O   0  0  0  0  0  0  0  0  0  0  0  0
    0.9688    2.4408   -2.3808 H   0  0  0  0  0  0  0  0  0  0  0  0
    0.7323    1.2018   -1.1124 H   0  0  0  0  0  0  0  0  0  0  0  0
    0.8072    0.7132   -2.8265 H   0  0  0  0  0  0  0  0  0  0  0  0
    3.2292    2.0525   -2.1918 H   0  0  0  0  0  0  0  0  0  0  0  0
    5.0578   -0.6791   -0.7258 H   0  0  0  0  0  0  0  0  0  0  0  0
    4.8529    1.0527   -0.4556 H   0  0  0  0  0  0  0  0  0  0  0  0
    5.2438   -0.6174   -4.0141 H   0  0  0  0  0  0  0  0  0  0  0  0
    5.8830   -1.5061   -2.6273 H   0  0  0  0  0  0  0  0  0  0  0  0
    7.9472   -0.7276   -5.8660 H   0  0  0  0  0  0  0  0  0  0  0  0
    6.6087   -1.6923   -5.3617 H   0  0  0  0  0  0  0  0  0  0  0  0
    9.2916   -2.4041   -5.4407 H   0  0  0  0  0  0  0  0  0  0  0  0
    8.5344   -4.5575   -4.2713 H   0  0  0  0  0  0  0  0  0  0  0  0
    7.4698   -4.0104   -5.5611 H   0  0  0  0  0  0  0  0  0  0  0  0
    7.0567   -4.1153   -2.8315 H   0  0  0  0  0  0  0  0  0  0  0  0
    9.5792   -2.2935   -0.6740 H   0  0  0  0  0  0  0  0  0  0  0  0
   11.6783   -5.7889   -0.8656 H   0  0  0  0  0  0  0  0  0  0  0  0
   12.6396   -6.6670   -3.0063 H   0  0  0  0  0  0  0  0  0  0  0  0
   13.1740   -6.3234   -5.3872 H   0  0  0  0  0  0  0  0  0  0  0  0
   12.5155   -4.2084   -6.5025 H   0  0  0  0  0  0  0  0  0  0  0  0
   11.2649   -2.5089   -5.2782 H   0  0  0  0  0  0  0  0  0  0  0  0
    9.6329    0.6723   -4.9997 H   0  0  0  0  0  0  0  0  0  0  0  0
    8.3204    4.7465   -5.2457 H   0  0  0  0  0  0  0  0  0  0  0  0
    6.3040    4.1904   -3.9330 H   0  0  0  0  0  0  0  0  0  0  0  0
  1  2  1  0  0  0  0
  1 35  1  0  0  0  0
  1 36  1  0  0  0  0
  1 37  1  0  0  0  0
  2  3  1  0  0  0  0
  2 38  1  0  0  0  0
  3  4  2  0  0  0  0
  3  5  1  0  0  0  0
  5  6  1  0  0  0  0
  5 39  1  0  0  0  0
  5 40  1  0  0  0  0
  6  7  1  0  0  0  0
  6 33  1  0  0  0  0
  7  8  1  0  0  0  0
  7 41  1  0  0  0  0
  7 42  1  0  0  0  0
  8  9  1  0  0  0  0
  8 24  1  1  0  0  0
  8 26  1  0  0  0  0
  9 10  1  0  0  0  0
  9 43  1  0  0  0  0
  9 44  1  0  0  0  0
 10 11  1  0  0  0  0
 10 13  1  0  0  0  0
 10 45  1  6  0  0  0
 11 12  1  0  0  0  0
 11 46  1  0  0  0  0
 11 47  1  0  0  0  0
 12 48  1  0  0  0  0
 13 14  1  0  0  0  0
 13 24  1  0  0  0  0
 14 15  1  0  0  0  0
 14 23  2  0  0  0  0
 15 16  2  0  0  0  0
 15 49  1  0  0  0  0
 16 17  1  0  0  0  0
 17 18  2  0  0  0  0
 17 50  1  0  0  0  0
 18 19  1  0  0  0  0
 18 23  1  0  0  0  0
 19 20  2  0  0  0  0
 19 51  1  0  0  0  0
 20 21  1  0  0  0  0
 20 52  1  0  0  0  0
 21 22  2  0  0  0  0
 21 53  1  0  0  0  0
 22 23  1  0  0  0  0
 22 54  1  0  0  0  0
 24 25  2  0  0  0  0
 26 27  1  0  0  0  0
 26 32  2  0  0  0  0
 27 28  2  0  0  0  0
 27 55  1  0  0  0  0
 28 29  1  0  0  0  0
 28 30  1  0  0  0  0
 30 31  2  0  0  0  0
 30 56  1  0  0  0  0
 31 32  1  0  0  0  0
 31 57  1  0  0  0  0
 32 33  1  0  0  0  0
 33 34  2  0  0  0  0
M  END
$$$$
