
 OpenBabel07202414173D

 48 52  0  0  1  0  0  0  0  0999 V2000
    0.9513    0.1048   -0.1100 Cl  0  0  0  0  0  0  0  0  0  0  0  0
    2.6658    0.0335    0.0132 C   0  0  0  0  0  0  0  0  0  0  0  0
    3.4194    1.1941   -0.1440 C   0  0  0  0  0  0  0  0  0  0  0  0
    4.8136    1.1369   -0.0717 C   0  0  0  0  0  0  0  0  0  0  0  0
    5.4655   -0.0822    0.1619 C   0  0  0  0  0  0  0  0  0  0  0  0
    4.6916   -1.2573    0.3274 C   0  0  0  0  0  0  0  0  0  0  0  0
    3.2911   -1.1876    0.2555 C   0  0  0  0  0  0  0  0  0  0  0  0
    5.3629   -2.6029    0.5828 C   0  0  3  0  0  0  0  0  0  0  0  0
    5.2812   -3.0446    2.0545 C   0  0  0  0  0  0  0  0  0  0  0  0
    4.8060   -4.1418    2.3401 O   0  0  0  0  0  0  0  0  0  0  0  0
    5.7410   -2.1053    2.9652 N   0  0  0  0  0  0  0  0  0  0  0  0
    5.6693   -2.1731    4.3803 C   0  0  0  0  0  0  0  0  0  0  0  0
    5.3557   -3.3499    5.0595 C   0  0  0  0  0  0  0  0  0  0  0  0
    5.0876   -3.4233    6.3842 N   0  0  0  0  0  0  0  0  0  0  0  0
    5.1702   -2.2698    7.0767 C   0  0  0  0  0  0  0  0  0  0  0  0
    5.5995   -1.0553    6.5437 C   0  0  0  0  0  0  0  0  0  0  0  0
    5.7624    0.0768    7.3638 C   0  0  0  0  0  0  0  0  0  0  0  0
    6.2171    1.2809    6.8335 C   0  0  0  0  0  0  0  0  0  0  0  0
    6.4920    1.3715    5.4763 C   0  0  0  0  0  0  0  0  0  0  0  0
    6.3180    0.2565    4.6496 C   0  0  0  0  0  0  0  0  0  0  0  0
    5.8717   -0.9933    5.1563 C   0  0  0  0  0  0  0  0  0  0  0  0
    6.8012   -2.5608    0.0699 C   0  0  0  0  0  0  0  0  0  0  0  0
    7.5055   -1.3999    0.6207 N   0  0  0  0  0  0  0  0  0  0  0  0
    8.6530   -1.4483    1.4349 C   0  0  0  0  0  0  0  0  0  0  0  0
    9.2569   -0.4021    1.6843 O   0  0  0  0  0  0  0  0  0  0  0  0
    9.0652   -2.7377    1.9978 C   0  0  0  0  0  0  0  0  0  0  0  0
    8.3182   -3.8170    2.1458 N   0  0  0  0  0  0  0  0  0  0  0  0
    9.1556   -4.7431    2.7149 C   0  0  0  0  0  0  0  0  0  0  0  0
   10.3900   -4.1792    2.9029 C   0  0  0  0  0  0  0  0  0  0  0  0
   10.3550   -2.8966    2.4593 O   0  0  0  0  0  0  0  0  0  0  0  0
    6.9866   -0.1109    0.1811 C   0  0  0  0  0  0  0  0  0  0  0  0
    2.9270    2.1452   -0.3315 H   0  0  0  0  0  0  0  0  0  0  0  0
    5.3864    2.0533   -0.2082 H   0  0  0  0  0  0  0  0  0  0  0  0
    2.6899   -2.0870    0.3767 H   0  0  0  0  0  0  0  0  0  0  0  0
    4.8302   -3.3634   -0.0047 H   0  0  0  0  0  0  0  0  0  0  0  0
    5.9955   -1.2115    2.5741 H   0  0  0  0  0  0  0  0  0  0  0  0
    5.3141   -4.3112    4.5575 H   0  0  0  0  0  0  0  0  0  0  0  0
    4.8767   -2.3550    8.1203 H   0  0  0  0  0  0  0  0  0  0  0  0
    5.5551    0.0192    8.4308 H   0  0  0  0  0  0  0  0  0  0  0  0
    6.3655    2.1419    7.4802 H   0  0  0  0  0  0  0  0  0  0  0  0
    6.8520    2.3074    5.0557 H   0  0  0  0  0  0  0  0  0  0  0  0
    6.5706    0.3854    3.6017 H   0  0  0  0  0  0  0  0  0  0  0  0
    6.7987   -2.4261   -1.0216 H   0  0  0  0  0  0  0  0  0  0  0  0
    7.3189   -3.5039    0.2277 H   0  0  0  0  0  0  0  0  0  0  0  0
    8.8258   -5.7419    2.9479 H   0  0  0  0  0  0  0  0  0  0  0  0
   11.3335   -4.5212    3.3096 H   0  0  0  0  0  0  0  0  0  0  0  0
    7.3595    0.0600   -0.8356 H   0  0  0  0  0  0  0  0  0  0  0  0
    7.3548    0.6928    0.8275 H   0  0  0  0  0  0  0  0  0  0  0  0
  1  2  1  0  0  0  0
  2  3  1  0  0  0  0
  2  7  2  0  0  0  0
  3  4  2  0  0  0  0
  3 32  1  0  0  0  0
  4  5  1  0  0  0  0
  4 33  1  0  0  0  0
  5  6  2  0  0  0  0
  5 31  1  0  0  0  0
  6  7  1  0  0  0  0
  6  8  1  0  0  0  0
  7 34  1  0  0  0  0
  8  9  1  0  0  0  0
  8 22  1  0  0  0  0
  8 35  1  0  0  0  0
  9 10  2  0  0  0  0
  9 11  1  0  0  0  0
 11 12  1  0  0  0  0
 11 36  1  0  0  0  0
 12 13  1  0  0  0  0
 12 21  2  0  0  0  0
 13 14  2  0  0  0  0
 13 37  1  0  0  0  0
 14 15  1  0  0  0  0
 15 16  2  0  0  0  0
 15 38  1  0  0  0  0
 16 17  1  0  0  0  0
 16 21  1  0  0  0  0
 17 18  2  0  0  0  0
 17 39  1  0  0  0  0
 18 19  1  0  0  0  0
 18 40  1  0  0  0  0
 19 20  2  0  0  0  0
 19 41  1  0  0  0  0
 20 21  1  0  0  0  0
 20 42  1  0  0  0  0
 22 23  1  0  0  0  0
 22 43  1  0  0  0  0
 22 44  1  0  0  0  0
 23 24  1  0  0  0  0
 23 31  1  0  0  0  0
 24 25  2  0  0  0  0
 24 26  1  0  0  0  0
 26 27  2  0  0  0  0
 26 30  1  0  0  0  0
 27 28  1  0  0  0  0
 28 29  2  0  0  0  0
 28 45  1  0  0  0  0
 29 30  1  0  0  0  0
 29 46  1  0  0  0  0
 31 47  1  0  0  0  0
 31 48  1  0  0  0  0
M  END
$$$$
