
 OpenBabel07202414143D

 46 50  0  0  1  0  0  0  0  0999 V2000
    1.3787   -0.1555   -0.3001 C   0  0  0  0  0  0  0  0  0  0  0  0
    2.8148   -0.0687   -0.1226 N   0  0  0  0  0  0  0  0  0  0  0  0
    3.6904   -1.1966   -0.4276 C   0  0  0  0  0  0  0  0  0  0  0  0
    4.4758   -1.6102    0.8260 C   0  0  1  0  0  0  0  0  0  0  0  0
    3.5271   -2.2718    1.8200 C   0  0  0  0  0  0  0  0  0  0  0  0
    4.2103   -3.5472    2.2402 C   0  0  0  0  0  0  0  0  0  0  0  0
    5.2914   -3.8058    1.3441 N   0  0  0  0  0  0  0  0  0  0  0  0
    5.9850   -5.0764    1.3049 C   0  0  0  0  0  0  0  0  0  0  0  0
    6.8924   -5.3480    0.2746 C   0  0  0  0  0  0  0  0  0  0  0  0
    7.4201   -6.5612   -0.0143 N   0  0  0  0  0  0  0  0  0  0  0  0
    7.0724   -7.5746    0.7943 C   0  0  0  0  0  0  0  0  0  0  0  0
    6.3029   -7.4372    1.9431 C   0  0  0  0  0  0  0  0  0  0  0  0
    6.1035   -8.5600    2.7735 C   0  0  0  0  0  0  0  0  0  0  0  0
    5.3785   -8.4660    3.9539 C   0  0  0  0  0  0  0  0  0  0  0  0
    4.8506   -7.2436    4.3170 C   0  0  0  0  0  0  0  0  0  0  0  0
    5.0481   -6.1285    3.4940 C   0  0  0  0  0  0  0  0  0  0  0  0
    5.7548   -6.1634    2.2506 C   0  0  0  0  0  0  0  0  0  0  0  0
    5.4697   -2.7215    0.4496 C   0  0  0  0  0  0  0  0  0  0  0  0
    6.2760   -2.6177   -0.4652 O   0  0  0  0  0  0  0  0  0  0  0  0
    5.1398   -0.3867    1.4536 C   0  0  0  0  0  0  0  0  0  0  0  0
    6.1888   -0.5088    2.3848 C   0  0  0  0  0  0  0  0  0  0  0  0
    6.6829    0.6178    3.0496 C   0  0  0  0  0  0  0  0  0  0  0  0
    7.8802    0.4272    4.2706 Cl  0  0  0  0  0  0  0  0  0  0  0  0
    6.1781    1.8854    2.7748 C   0  0  0  0  0  0  0  0  0  0  0  0
    5.1467    2.0286    1.8493 C   0  0  0  0  0  0  0  0  0  0  0  0
    4.6098    0.9013    1.2110 C   0  0  0  0  0  0  0  0  0  0  0  0
    3.3353    1.0778    0.4537 C   0  0  0  0  0  0  0  0  0  0  0  0
    2.7408    2.1499    0.4763 O   0  0  0  0  0  0  0  0  0  0  0  0
    1.0730   -1.1652   -0.5821 H   0  0  0  0  0  0  0  0  0  0  0  0
    1.0556    0.5698   -1.0502 H   0  0  0  0  0  0  0  0  0  0  0  0
    0.9029    0.1003    0.6550 H   0  0  0  0  0  0  0  0  0  0  0  0
    4.3654   -0.8677   -1.2286 H   0  0  0  0  0  0  0  0  0  0  0  0
    3.1022   -2.0289   -0.8326 H   0  0  0  0  0  0  0  0  0  0  0  0
    2.5580   -2.5180    1.3713 H   0  0  0  0  0  0  0  0  0  0  0  0
    3.3085   -1.6484    2.6947 H   0  0  0  0  0  0  0  0  0  0  0  0
    3.4890   -4.3677    2.1907 H   0  0  0  0  0  0  0  0  0  0  0  0
    4.6052   -3.4015    3.2516 H   0  0  0  0  0  0  0  0  0  0  0  0
    7.2409   -4.5873   -0.4137 H   0  0  0  0  0  0  0  0  0  0  0  0
    7.4639   -8.5423    0.4889 H   0  0  0  0  0  0  0  0  0  0  0  0
    6.5385   -9.5235    2.5122 H   0  0  0  0  0  0  0  0  0  0  0  0
    5.2468   -9.3321    4.5959 H   0  0  0  0  0  0  0  0  0  0  0  0
    4.2960   -7.1384    5.2466 H   0  0  0  0  0  0  0  0  0  0  0  0
    4.6523   -5.2133    3.9059 H   0  0  0  0  0  0  0  0  0  0  0  0
    6.6017   -1.4837    2.6363 H   0  0  0  0  0  0  0  0  0  0  0  0
    6.5497    2.7593    3.3039 H   0  0  0  0  0  0  0  0  0  0  0  0
    4.7178    3.0138    1.6719 H   0  0  0  0  0  0  0  0  0  0  0  0
  1  2  1  0  0  0  0
  1 29  1  0  0  0  0
  1 30  1  0  0  0  0
  1 31  1  0  0  0  0
  2  3  1  0  0  0  0
  2 27  1  0  0  0  0
  3  4  1  0  0  0  0
  3 32  1  0  0  0  0
  3 33  1  0  0  0  0
  4  5  1  0  0  0  0
  4 18  1  6  0  0  0
  4 20  1  0  0  0  0
  5  6  1  0  0  0  0
  5 34  1  0  0  0  0
  5 35  1  0  0  0  0
  6  7  1  0  0  0  0
  6 36  1  0  0  0  0
  6 37  1  0  0  0  0
  7  8  1  0  0  0  0
  7 18  1  0  0  0  0
  8  9  1  0  0  0  0
  8 17  2  0  0  0  0
  9 10  2  0  0  0  0
  9 38  1  0  0  0  0
 10 11  1  0  0  0  0
 11 12  2  0  0  0  0
 11 39  1  0  0  0  0
 12 13  1  0  0  0  0
 12 17  1  0  0  0  0
 13 14  2  0  0  0  0
 13 40  1  0  0  0  0
 14 15  1  0  0  0  0
 14 41  1  0  0  0  0
 15 16  2  0  0  0  0
 15 42  1  0  0  0  0
 16 17  1  0  0  0  0
 16 43  1  0  0  0  0
 18 19  2  0  0  0  0
 20 21  1  0  0  0  0
 20 26  2  0  0  0  0
 21 22  2  0  0  0  0
 21 44  1  0  0  0  0
 22 23  1  0  0  0  0
 22 24  1  0  0  0  0
 24 25  2  0  0  0  0
 24 45  1  0  0  0  0
 25 26  1  0  0  0  0
 25 46  1  0  0  0  0
 26 27  1  0  0  0  0
 27 28  2  0  0  0  0
M  END
$$$$
