
 OpenBabel07202414133D

 44 46  0  0  0  0  0  0  0  0999 V2000
    0.8762    1.0055    2.3478 C   0  0  0  0  0  0  0  0  0  0  0  0
    2.3110    1.2539    2.3494 N   0  0  0  0  0  0  0  0  0  0  0  0
    2.8473    1.9894    3.4835 C   0  0  0  0  0  0  0  0  0  0  0  0
    3.0250    0.7620    1.2518 C   0  0  0  0  0  0  0  0  0  0  0  0
    2.4462    0.2378    0.2993 O   0  0  0  0  0  0  0  0  0  0  0  0
    4.5145    0.8436    1.1688 C   0  0  0  0  0  0  0  0  0  0  0  0
    5.0867    0.9180   -0.1057 C   0  0  0  0  0  0  0  0  0  0  0  0
    6.4772    0.9043   -0.2717 C   0  0  0  0  0  0  0  0  0  0  0  0
    7.3517    0.8338    0.8363 C   0  0  0  0  0  0  0  0  0  0  0  0
    8.7641    0.7453    0.7472 C   0  0  0  0  0  0  0  0  0  0  0  0
    9.4129    0.7385   -0.5134 N   0  0  0  0  0  0  0  0  0  0  0  0
   10.4664   -0.1180   -0.8036 C   0  0  0  0  0  0  0  0  0  0  0  0
   10.9189   -0.9567   -0.0283 O   0  0  0  0  0  0  0  0  0  0  0  0
   11.0136    0.0418   -2.2113 C   0  0  0  0  0  0  0  0  0  0  0  0
   10.2612   -0.7293   -3.2714 C   0  0  0  0  0  0  0  0  0  0  0  0
   10.0430   -2.1081   -3.1523 C   0  0  0  0  0  0  0  0  0  0  0  0
    9.4229   -2.8275   -4.1790 C   0  0  0  0  0  0  0  0  0  0  0  0
    9.0216   -2.1786   -5.3430 C   0  0  0  0  0  0  0  0  0  0  0  0
    9.2322   -0.8084   -5.4747 C   0  0  0  0  0  0  0  0  0  0  0  0
    8.7523   -0.0016   -6.9157 Cl  0  0  0  0  0  0  0  0  0  0  0  0
    9.8506   -0.0834   -4.4528 C   0  0  0  0  0  0  0  0  0  0  0  0
    9.4977    0.6602    1.9336 C   0  0  0  0  0  0  0  0  0  0  0  0
    8.9551    0.6673    3.1716 N   0  0  0  0  0  0  0  0  0  0  0  0
    7.6090    0.7033    3.2311 C   0  0  0  0  0  0  0  0  0  0  0  0
    6.7645    0.7685    2.1205 C   0  0  0  0  0  0  0  0  0  0  0  0
    5.3639    0.7342    2.2686 C   0  0  0  0  0  0  0  0  0  0  0  0
    0.4037    1.4030    3.2497 H   0  0  0  0  0  0  0  0  0  0  0  0
    0.6972   -0.0719    2.2908 H   0  0  0  0  0  0  0  0  0  0  0  0
    0.4360    1.4864    1.4688 H   0  0  0  0  0  0  0  0  0  0  0  0
    2.0835    2.6455    3.9109 H   0  0  0  0  0  0  0  0  0  0  0  0
    3.6946    2.6076    3.1802 H   0  0  0  0  0  0  0  0  0  0  0  0
    3.1527    1.2694    4.2489 H   0  0  0  0  0  0  0  0  0  0  0  0
    4.4496    0.9480   -0.9886 H   0  0  0  0  0  0  0  0  0  0  0  0
    6.8536    0.9108   -1.2908 H   0  0  0  0  0  0  0  0  0  0  0  0
    8.9004    1.0967   -1.3073 H   0  0  0  0  0  0  0  0  0  0  0  0
   12.0575   -0.2921   -2.2044 H   0  0  0  0  0  0  0  0  0  0  0  0
   11.0359    1.1146   -2.4506 H   0  0  0  0  0  0  0  0  0  0  0  0
   10.3684   -2.6435   -2.2614 H   0  0  0  0  0  0  0  0  0  0  0  0
    9.2674   -3.8986   -4.0742 H   0  0  0  0  0  0  0  0  0  0  0  0
    8.5490   -2.7417   -6.1447 H   0  0  0  0  0  0  0  0  0  0  0  0
   10.0277    0.9786   -4.5860 H   0  0  0  0  0  0  0  0  0  0  0  0
   10.5838    0.6147    1.9274 H   0  0  0  0  0  0  0  0  0  0  0  0
    7.2097    0.6754    4.2425 H   0  0  0  0  0  0  0  0  0  0  0  0
    4.9571    0.5686    3.2610 H   0  0  0  0  0  0  0  0  0  0  0  0
  1  2  1  0  0  0  0
  1 27  1  0  0  0  0
  1 28  1  0  0  0  0
  1 29  1  0  0  0  0
  2  3  1  0  0  0  0
  2  4  1  0  0  0  0
  3 30  1  0  0  0  0
  3 31  1  0  0  0  0
  3 32  1  0  0  0  0
  4  5  2  0  0  0  0
  4  6  1  0  0  0  0
  6  7  1  0  0  0  0
  6 26  2  0  0  0  0
  7  8  2  0  0  0  0
  7 33  1  0  0  0  0
  8  9  1  0  0  0  0
  8 34  1  0  0  0  0
  9 10  1  0  0  0  0
  9 25  2  0  0  0  0
 10 11  1  0  0  0  0
 10 22  2  0  0  0  0
 11 12  1  0  0  0  0
 11 35  1  0  0  0  0
 12 13  2  0  0  0  0
 12 14  1  0  0  0  0
 14 15  1  0  0  0  0
 14 36  1  0  0  0  0
 14 37  1  0  0  0  0
 15 16  1  0  0  0  0
 15 21  2  0  0  0  0
 16 17  2  0  0  0  0
 16 38  1  0  0  0  0
 17 18  1  0  0  0  0
 17 39  1  0  0  0  0
 18 19  2  0  0  0  0
 18 40  1  0  0  0  0
 19 20  1  0  0  0  0
 19 21  1  0  0  0  0
 21 41  1  0  0  0  0
 22 23  1  0  0  0  0
 22 42  1  0  0  0  0
 23 24  2  0  0  0  0
 24 25  1  0  0  0  0
 24 43  1  0  0  0  0
 25 26  1  0  0  0  0
 26 44  1  0  0  0  0
M  END
$$$$
