
 OpenBabel07202414173D

 60 64  0  0  1  0  0  0  0  0999 V2000
    1.7435    6.7819   -6.3932 Cl  0  0  0  0  0  0  0  0  0  0  0  0
    2.9768    5.5863   -6.4160 C   0  0  0  0  0  0  0  0  0  0  0  0
    3.4921    5.1031   -5.2085 C   0  0  0  0  0  0  0  0  0  0  0  0
    4.4867    4.1104   -5.2055 C   0  0  0  0  0  0  0  0  0  0  0  0
    4.9272    3.5950   -6.4385 C   0  0  0  0  0  0  0  0  0  0  0  0
    5.7629    2.5294   -6.5782 O   0  0  0  0  0  0  0  0  0  0  0  0
    6.2265    1.9209   -5.3751 C   0  0  0  0  0  0  0  0  0  0  0  0
    5.2060    1.9785   -4.2488 C   0  0  0  0  0  0  0  0  0  0  0  0
    4.8761    3.4602   -3.9048 C   0  0  3  0  0  0  0  0  0  0  0  0
    5.9192    4.0676   -2.9160 C   0  0  0  0  0  0  0  0  0  0  0  0
    6.4824    3.2254   -2.1889 O   0  0  0  0  0  0  0  0  0  0  0  0
    6.0362    5.4449   -2.5667 N   0  0  0  0  0  0  0  0  0  0  0  0
    6.7630    5.6570   -1.2034 C   0  0  0  0  0  0  0  0  0  0  0  0
    6.2069    6.6582   -0.1666 C   0  0  0  0  0  0  0  0  0  0  0  0
    4.9352    7.0868   -0.0790 C   0  0  0  0  0  0  0  0  0  0  0  0
    7.2301    7.0208    0.9193 C   0  0  0  0  0  0  0  0  0  0  0  0
    8.1211    6.2060    1.1481 O   0  0  0  0  0  0  0  0  0  0  0  0
    7.0787    8.2409    1.5767 N   0  0  0  0  0  0  0  0  0  0  0  0
    7.9412    8.7801    2.5739 C   0  0  0  0  0  0  0  0  0  0  0  0
    9.2099    8.2696    2.8645 C   0  0  0  0  0  0  0  0  0  0  0  0
   10.0227    8.8166    3.8812 C   0  0  0  0  0  0  0  0  0  0  0  0
    9.5774    9.8894    4.6241 C   0  0  0  0  0  0  0  0  0  0  0  0
    8.3265   10.4400    4.3488 C   0  0  0  0  0  0  0  0  0  0  0  0
    7.5251    9.8929    3.3304 C   0  0  0  0  0  0  0  0  0  0  0  0
    6.3173    6.5329   -3.5564 C   0  0  0  0  0  0  0  0  0  0  0  0
    7.0265    6.3719   -4.7743 C   0  0  0  0  0  0  0  0  0  0  0  0
    6.4545    6.6429   -6.0405 C   0  0  0  0  0  0  0  0  0  0  0  0
    7.2263    6.8301   -7.2118 C   0  0  0  0  0  0  0  0  0  0  0  0
    8.6022    6.6606   -7.1604 C   0  0  0  0  0  0  0  0  0  0  0  0
    9.1888    6.5613   -5.9123 C   0  0  0  0  0  0  0  0  0  0  0  0
    8.3612    6.7702   -4.8064 C   0  0  0  0  0  0  0  0  0  0  0  0
    8.6180    7.8969   -4.0413 C   0  0  0  0  0  0  0  0  0  0  0  0
    7.7059    8.4815   -3.2272 N   0  0  0  0  0  0  0  0  0  0  0  0
    6.5708    7.7822   -3.0075 C   0  0  0  0  0  0  0  0  0  0  0  0
    4.4256    4.1071   -7.6373 C   0  0  0  0  0  0  0  0  0  0  0  0
    3.4506    5.1020   -7.6307 C   0  0  0  0  0  0  0  0  0  0  0  0
    3.0860    5.4688   -4.2679 H   0  0  0  0  0  0  0  0  0  0  0  0
    7.1762    2.3856   -5.0926 H   0  0  0  0  0  0  0  0  0  0  0  0
    6.4399    0.8717   -5.6171 H   0  0  0  0  0  0  0  0  0  0  0  0
    5.5701    1.4065   -3.3890 H   0  0  0  0  0  0  0  0  0  0  0  0
    4.2885    1.4723   -4.5869 H   0  0  0  0  0  0  0  0  0  0  0  0
    3.9568    3.3934   -3.3016 H   0  0  0  0  0  0  0  0  0  0  0  0
    7.8074    5.8963   -1.4438 H   0  0  0  0  0  0  0  0  0  0  0  0
    6.7978    4.7059   -0.6574 H   0  0  0  0  0  0  0  0  0  0  0  0
    4.1884    6.7744   -0.8011 H   0  0  0  0  0  0  0  0  0  0  0  0
    4.5797    7.7178    0.7299 H   0  0  0  0  0  0  0  0  0  0  0  0
    6.2705    8.8055    1.3618 H   0  0  0  0  0  0  0  0  0  0  0  0
    9.6089    7.4388    2.2972 H   0  0  0  0  0  0  0  0  0  0  0  0
   11.0058    8.3847    4.0724 H   0  0  0  0  0  0  0  0  0  0  0  0
   10.2040   10.3020    5.4138 H   0  0  0  0  0  0  0  0  0  0  0  0
    7.9710   11.2863    4.9337 H   0  0  0  0  0  0  0  0  0  0  0  0
    6.5480   10.3494    3.1561 H   0  0  0  0  0  0  0  0  0  0  0  0
    5.3997    6.8945   -6.1115 H   0  0  0  0  0  0  0  0  0  0  0  0
    6.7622    7.1778   -8.1330 H   0  0  0  0  0  0  0  0  0  0  0  0
    9.2202    6.7664   -8.0487 H   0  0  0  0  0  0  0  0  0  0  0  0
   10.2708    6.6135   -5.8250 H   0  0  0  0  0  0  0  0  0  0  0  0
    9.4891    8.5181   -4.2439 H   0  0  0  0  0  0  0  0  0  0  0  0
    5.9487    8.1981   -2.2278 H   0  0  0  0  0  0  0  0  0  0  0  0
    4.7696    3.6965   -8.5799 H   0  0  0  0  0  0  0  0  0  0  0  0
    3.0542    5.4776   -8.5696 H   0  0  0  0  0  0  0  0  0  0  0  0
  1  2  1  0  0  0  0
  2  3  2  0  0  0  0
  2 36  1  0  0  0  0
  3  4  1  0  0  0  0
  3 37  1  0  0  0  0
  4  5  2  0  0  0  0
  4  9  1  0  0  0  0
  5  6  1  0  0  0  0
  5 35  1  0  0  0  0
  6  7  1  0  0  0  0
  7  8  1  0  0  0  0
  7 38  1  0  0  0  0
  7 39  1  0  0  0  0
  8  9  1  0  0  0  0
  8 40  1  0  0  0  0
  8 41  1  0  0  0  0
  9 10  1  0  0  0  0
  9 42  1  0  0  0  0
 10 11  2  0  0  0  0
 10 12  1  0  0  0  0
 12 13  1  0  0  0  0
 12 25  1  0  0  0  0
 13 14  1  0  0  0  0
 13 43  1  0  0  0  0
 13 44  1  0  0  0  0
 14 15  2  0  0  0  0
 14 16  1  0  0  0  0
 15 45  1  0  0  0  0
 15 46  1  0  0  0  0
 16 17  2  0  0  0  0
 16 18  1  0  0  0  0
 18 19  1  0  0  0  0
 18 47  1  0  0  0  0
 19 20  2  0  0  0  0
 19 24  1  0  0  0  0
 20 21  1  0  0  0  0
 20 48  1  0  0  0  0
 21 22  2  0  0  0  0
 21 49  1  0  0  0  0
 22 23  1  0  0  0  0
 22 50  1  0  0  0  0
 23 24  2  0  0  0  0
 23 51  1  0  0  0  0
 24 52  1  0  0  0  0
 25 26  2  0  0  0  0
 25 34  1  0  0  0  0
 26 27  1  0  0  0  0
 26 31  1  0  0  0  0
 27 28  2  0  0  0  0
 27 53  1  0  0  0  0
 28 29  1  0  0  0  0
 28 54  1  0  0  0  0
 29 30  2  0  0  0  0
 29 55  1  0  0  0  0
 30 31  1  0  0  0  0
 30 56  1  0  0  0  0
 31 32  2  0  0  0  0
 32 33  1  0  0  0  0
 32 57  1  0  0  0  0
 33 34  2  0  0  0  0
 34 58  1  0  0  0  0
 35 36  2  0  0  0  0
 35 59  1  0  0  0  0
 36 60  1  0  0  0  0
M  END
$$$$
