
 OpenBabel07202414143D

 47 50  0  0  1  0  0  0  0  0999 V2000
    1.4523   -1.2277   -0.3769 C   0  0  0  0  0  0  0  0  0  0  0  0
    2.8607   -0.9257   -0.2459 N   0  0  0  0  0  0  0  0  0  0  0  0
    3.5450   -0.1902   -1.1874 C   0  0  0  0  0  0  0  0  0  0  0  0
    2.9888    0.2711   -2.1738 O   0  0  0  0  0  0  0  0  0  0  0  0
    4.9032   -0.0338   -0.9469 N   0  0  0  0  0  0  0  0  0  0  0  0
    5.6510   -0.7317    0.1012 C   0  0  0  0  0  0  0  0  0  0  0  0
    6.1424   -2.0769   -0.4192 C   0  0  0  0  0  0  0  0  0  0  0  0
    6.8499   -1.9284   -1.7471 C   0  0  0  0  0  0  0  0  0  0  0  0
    7.6953   -2.9560   -2.1807 C   0  0  0  0  0  0  0  0  0  0  0  0
    8.3260   -2.8755   -3.4227 C   0  0  0  0  0  0  0  0  0  0  0  0
    8.0932   -1.7778   -4.2436 C   0  0  0  0  0  0  0  0  0  0  0  0
    8.8688   -1.6841   -5.7769 Cl  0  0  0  0  0  0  0  0  0  0  0  0
    7.2457   -0.7510   -3.8316 C   0  0  0  0  0  0  0  0  0  0  0  0
    6.6195   -0.8032   -2.5723 C   0  0  0  0  0  0  0  0  0  0  0  0
    5.7524    0.3757   -2.1060 C   0  0  3  0  0  0  0  0  0  0  0  0
    6.6344    1.6370   -1.7957 C   0  0  0  0  0  0  0  0  0  0  0  0
    7.6259    1.9230   -2.4520 O   0  0  0  0  0  0  0  0  0  0  0  0
    6.1101    2.4293   -0.7839 N   0  0  0  0  0  0  0  0  0  0  0  0
    6.7237    3.5428   -0.1540 C   0  0  0  0  0  0  0  0  0  0  0  0
    7.9982    4.0019   -0.4912 C   0  0  0  0  0  0  0  0  0  0  0  0
    8.7105    4.8902    0.2419 N   0  0  0  0  0  0  0  0  0  0  0  0
    8.0912    5.4184    1.3145 C   0  0  0  0  0  0  0  0  0  0  0  0
    6.7590    5.1832    1.6459 C   0  0  0  0  0  0  0  0  0  0  0  0
    6.1270    5.9164    2.6654 C   0  0  0  0  0  0  0  0  0  0  0  0
    4.7894    5.6899    2.9763 C   0  0  0  0  0  0  0  0  0  0  0  0
    4.0852    4.7014    2.3018 C   0  0  0  0  0  0  0  0  0  0  0  0
    4.7050    3.9656    1.2884 C   0  0  0  0  0  0  0  0  0  0  0  0
    6.0527    4.2008    0.9134 C   0  0  0  0  0  0  0  0  0  0  0  0
    1.1256   -1.6985    0.5542 H   0  0  0  0  0  0  0  0  0  0  0  0
    1.3053   -1.9197   -1.2083 H   0  0  0  0  0  0  0  0  0  0  0  0
    0.8877   -0.3095   -0.5477 H   0  0  0  0  0  0  0  0  0  0  0  0
    3.2455   -1.0366    0.6709 H   0  0  0  0  0  0  0  0  0  0  0  0
    5.0558   -0.8715    1.0046 H   0  0  0  0  0  0  0  0  0  0  0  0
    6.4981   -0.1005    0.3954 H   0  0  0  0  0  0  0  0  0  0  0  0
    5.2935   -2.7560   -0.5642 H   0  0  0  0  0  0  0  0  0  0  0  0
    6.8133   -2.5241    0.3219 H   0  0  0  0  0  0  0  0  0  0  0  0
    7.8745   -3.8239   -1.5532 H   0  0  0  0  0  0  0  0  0  0  0  0
    8.9934   -3.6708   -3.7409 H   0  0  0  0  0  0  0  0  0  0  0  0
    7.0962    0.1107   -4.4799 H   0  0  0  0  0  0  0  0  0  0  0  0
    5.1106    0.6766   -2.9424 H   0  0  0  0  0  0  0  0  0  0  0  0
    5.2542    2.0730   -0.3787 H   0  0  0  0  0  0  0  0  0  0  0  0
    8.5289    3.6651   -1.3756 H   0  0  0  0  0  0  0  0  0  0  0  0
    8.7177    6.0699    1.9186 H   0  0  0  0  0  0  0  0  0  0  0  0
    6.6649    6.7010    3.1942 H   0  0  0  0  0  0  0  0  0  0  0  0
    4.2953    6.2930    3.7335 H   0  0  0  0  0  0  0  0  0  0  0  0
    3.0414    4.5165    2.5436 H   0  0  0  0  0  0  0  0  0  0  0  0
    4.0926    3.2376    0.7650 H   0  0  0  0  0  0  0  0  0  0  0  0
  1  2  1  0  0  0  0
  1 29  1  0  0  0  0
  1 30  1  0  0  0  0
  1 31  1  0  0  0  0
  2  3  1  0  0  0  0
  2 32  1  0  0  0  0
  3  4  2  0  0  0  0
  3  5  1  0  0  0  0
  5  6  1  0  0  0  0
  5 15  1  0  0  0  0
  6  7  1  0  0  0  0
  6 33  1  0  0  0  0
  6 34  1  0  0  0  0
  7  8  1  0  0  0  0
  7 35  1  0  0  0  0
  7 36  1  0  0  0  0
  8  9  1  0  0  0  0
  8 14  2  0  0  0  0
  9 10  2  0  0  0  0
  9 37  1  0  0  0  0
 10 11  1  0  0  0  0
 10 38  1  0  0  0  0
 11 12  1  0  0  0  0
 11 13  2  0  0  0  0
 13 14  1  0  0  0  0
 13 39  1  0  0  0  0
 14 15  1  0  0  0  0
 15 16  1  0  0  0  0
 15 40  1  0  0  0  0
 16 17  2  0  0  0  0
 16 18  1  0  0  0  0
 18 19  1  0  0  0  0
 18 41  1  0  0  0  0
 19 20  1  0  0  0  0
 19 28  2  0  0  0  0
 20 21  2  0  0  0  0
 20 42  1  0  0  0  0
 21 22  1  0  0  0  0
 22 23  2  0  0  0  0
 22 43  1  0  0  0  0
 23 24  1  0  0  0  0
 23 28  1  0  0  0  0
 24 25  2  0  0  0  0
 24 44  1  0  0  0  0
 25 26  1  0  0  0  0
 25 45  1  0  0  0  0
 26 27  2  0  0  0  0
 26 46  1  0  0  0  0
 27 28  1  0  0  0  0
 27 47  1  0  0  0  0
M  END
$$$$
