
 OpenBabel07202414133D

 48 52  0  0  0  0  0  0  0  0999 V2000
    1.0331   -0.4325   -0.3403 C   0  0  0  0  0  0  0  0  0  0  0  0
    2.4125   -0.3577    0.1231 N   0  0  0  0  0  0  0  0  0  0  0  0
    3.3324   -1.2901   -0.3528 C   0  0  0  0  0  0  0  0  0  0  0  0
    3.0353   -2.4243   -0.7043 O   0  0  0  0  0  0  0  0  0  0  0  0
    4.5483   -0.6734   -0.4949 N   0  0  0  0  0  0  0  0  0  0  0  0
    5.6953   -1.3492   -0.9821 C   0  0  0  0  0  0  0  0  0  0  0  0
    6.2626   -2.4546   -0.2700 C   0  0  0  0  0  0  0  0  0  0  0  0
    5.7296   -3.0334    0.9101 C   0  0  0  0  0  0  0  0  0  0  0  0
    6.3801   -4.0704    1.5887 C   0  0  0  0  0  0  0  0  0  0  0  0
    7.5943   -4.5521    1.1203 C   0  0  0  0  0  0  0  0  0  0  0  0
    8.1460   -4.0115   -0.0385 C   0  0  0  0  0  0  0  0  0  0  0  0
    7.4937   -2.9803   -0.7345 C   0  0  0  0  0  0  0  0  0  0  0  0
    8.0544   -2.4302   -1.8881 C   0  0  0  0  0  0  0  0  0  0  0  0
    7.5207   -1.4138   -2.5929 N   0  0  0  0  0  0  0  0  0  0  0  0
    6.3694   -0.8897   -2.1135 C   0  0  0  0  0  0  0  0  0  0  0  0
    4.3587    0.6953   -0.5126 C   0  0  0  0  0  0  0  0  0  0  0  0
    5.0556    1.4955   -1.1289 O   0  0  0  0  0  0  0  0  0  0  0  0
    3.0333    1.0310    0.4353 C   0  0  0  0  0  0  0  0  0  0  0  0
    2.3111    1.0720    1.9003 C   0  0  0  0  0  0  0  0  0  0  0  0
    3.1443    2.1589    2.3595 N   0  0  0  0  0  0  0  0  0  0  0  0
    3.3611    2.0529    3.8091 C   0  0  0  0  0  0  0  0  0  0  0  0
    4.1406    3.2260    4.3547 C   0  0  0  0  0  0  0  0  0  0  0  0
    3.6070    4.5223    4.2795 C   0  0  0  0  0  0  0  0  0  0  0  0
    4.2919    5.6049    4.8277 C   0  0  0  0  0  0  0  0  0  0  0  0
    5.5193    5.4059    5.4566 C   0  0  0  0  0  0  0  0  0  0  0  0
    6.0664    4.1255    5.5272 C   0  0  0  0  0  0  0  0  0  0  0  0
    5.3822    3.0397    4.9774 C   0  0  0  0  0  0  0  0  0  0  0  0
    4.2098    1.4800    1.6268 C   0  0  0  0  0  0  0  0  0  0  0  0
    0.7435   -1.4662   -0.5346 H   0  0  0  0  0  0  0  0  0  0  0  0
    0.9472    0.1396   -1.2683 H   0  0  0  0  0  0  0  0  0  0  0  0
    0.3581   -0.0103    0.4076 H   0  0  0  0  0  0  0  0  0  0  0  0
    4.7854   -2.6918    1.3255 H   0  0  0  0  0  0  0  0  0  0  0  0
    5.9360   -4.4951    2.4860 H   0  0  0  0  0  0  0  0  0  0  0  0
    8.1110   -5.3469    1.6538 H   0  0  0  0  0  0  0  0  0  0  0  0
    9.1028   -4.3945   -0.3884 H   0  0  0  0  0  0  0  0  0  0  0  0
    8.9966   -2.8010   -2.2851 H   0  0  0  0  0  0  0  0  0  0  0  0
    5.9826   -0.0703   -2.7140 H   0  0  0  0  0  0  0  0  0  0  0  0
    2.3926    0.1331    2.4810 H   0  0  0  0  0  0  0  0  0  0  0  0
    1.2468    1.3328    1.8894 H   0  0  0  0  0  0  0  0  0  0  0  0
    3.8521    1.1118    4.0946 H   0  0  0  0  0  0  0  0  0  0  0  0
    2.3911    2.0440    4.3257 H   0  0  0  0  0  0  0  0  0  0  0  0
    2.6490    4.6864    3.7895 H   0  0  0  0  0  0  0  0  0  0  0  0
    3.8667    6.6027    4.7654 H   0  0  0  0  0  0  0  0  0  0  0  0
    6.0503    6.2494    5.8895 H   0  0  0  0  0  0  0  0  0  0  0  0
    7.0256    3.9729    6.0143 H   0  0  0  0  0  0  0  0  0  0  0  0
    5.8228    2.0482    5.0464 H   0  0  0  0  0  0  0  0  0  0  0  0
    4.7178    0.6357    2.1150 H   0  0  0  0  0  0  0  0  0  0  0  0
    4.9770    2.1988    1.3055 H   0  0  0  0  0  0  0  0  0  0  0  0
  1  2  1  0  0  0  0
  1 29  1  0  0  0  0
  1 30  1  0  0  0  0
  1 31  1  0  0  0  0
  2  3  1  0  0  0  0
  2 18  1  0  0  0  0
  3  4  2  0  0  0  0
  3  5  1  0  0  0  0
  5  6  1  0  0  0  0
  5 16  1  0  0  0  0
  6  7  2  0  0  0  0
  6 15  1  0  0  0  0
  7  8  1  0  0  0  0
  7 12  1  0  0  0  0
  8  9  2  0  0  0  0
  8 32  1  0  0  0  0
  9 10  1  0  0  0  0
  9 33  1  0  0  0  0
 10 11  2  0  0  0  0
 10 34  1  0  0  0  0
 11 12  1  0  0  0  0
 11 35  1  0  0  0  0
 12 13  2  0  0  0  0
 13 14  1  0  0  0  0
 13 36  1  0  0  0  0
 14 15  2  0  0  0  0
 15 37  1  0  0  0  0
 16 17  2  0  0  0  0
 16 18  1  0  0  0  0
 18 19  1  0  0  0  0
 18 28  1  0  0  0  0
 19 20  1  0  0  0  0
 19 38  1  0  0  0  0
 19 39  1  0  0  0  0
 20 21  1  0  0  0  0
 20 28  1  0  0  0  0
 21 22  1  0  0  0  0
 21 40  1  0  0  0  0
 21 41  1  0  0  0  0
 22 23  2  0  0  0  0
 22 27  1  0  0  0  0
 23 24  1  0  0  0  0
 23 42  1  0  0  0  0
 24 25  2  0  0  0  0
 24 43  1  0  0  0  0
 25 26  1  0  0  0  0
 25 44  1  0  0  0  0
 26 27  2  0  0  0  0
 26 45  1  0  0  0  0
 27 46  1  0  0  0  0
 28 47  1  0  0  0  0
 28 48  1  0  0  0  0
M  END
$$$$
