
 OpenBabel07202414153D

 50 53  0  0  1  0  0  0  0  0999 V2000
    2.3627    2.1717   -1.1869 C   0  0  0  0  0  0  0  0  0  0  0  0
    3.1970    1.1218   -0.7131 O   0  0  0  0  0  0  0  0  0  0  0  0
    3.6083    0.2551   -1.7750 C   0  0  0  0  0  0  0  0  0  0  0  0
    4.5165   -0.8407   -1.2089 C   0  0  0  0  0  0  0  0  0  0  0  0
    4.9767   -1.7751   -2.2508 N   0  0  0  0  0  0  0  0  0  0  0  0
    4.0989   -2.9047   -2.5642 C   0  0  0  0  0  0  0  0  0  0  0  0
    4.9124   -4.1753   -2.7316 C   0  0  0  0  0  0  0  0  0  0  0  0
    5.9349   -3.9888   -3.8536 C   0  0  3  0  0  0  0  0  0  0  0  0
    6.7179   -2.7073   -3.6682 C   0  0  0  0  0  0  0  0  0  0  0  0
    6.1925   -1.6451   -2.8995 C   0  0  0  0  0  0  0  0  0  0  0  0
    6.9690   -0.4760   -2.8295 C   0  0  0  0  0  0  0  0  0  0  0  0
    8.2022   -0.3597   -3.4842 C   0  0  0  0  0  0  0  0  0  0  0  0
    8.6993   -1.4253   -4.2204 C   0  0  0  0  0  0  0  0  0  0  0  0
    7.9678   -2.5992   -4.3128 C   0  0  0  0  0  0  0  0  0  0  0  0
   10.2042   -1.2873   -5.0370 Cl  0  0  0  0  0  0  0  0  0  0  0  0
    5.2653   -4.1540   -5.2276 C   0  0  0  0  0  0  0  0  0  0  0  0
    4.7221   -5.2249   -5.4936 O   0  0  0  0  0  0  0  0  0  0  0  0
    5.2991   -3.0580   -6.0811 N   0  0  0  0  0  0  0  0  0  0  0  0
    4.7511   -3.0111   -7.3947 C   0  0  0  0  0  0  0  0  0  0  0  0
    4.3780   -4.1656   -8.0858 C   0  0  0  0  0  0  0  0  0  0  0  0
    3.6852   -4.1820   -9.2468 N   0  0  0  0  0  0  0  0  0  0  0  0
    3.3364   -2.9830   -9.7488 C   0  0  0  0  0  0  0  0  0  0  0  0
    3.7263   -1.7579   -9.2117 C   0  0  0  0  0  0  0  0  0  0  0  0
    4.5105   -1.7582   -8.0321 C   0  0  0  0  0  0  0  0  0  0  0  0
    4.9849   -0.4974   -7.5830 C   0  0  0  0  0  0  0  0  0  0  0  0
    4.6481    0.6933   -8.2395 C   0  0  0  0  0  0  0  0  0  0  0  0
    3.8074    0.6673   -9.3448 C   0  0  0  0  0  0  0  0  0  0  0  0
    3.3509   -0.5534   -9.8314 C   0  0  0  0  0  0  0  0  0  0  0  0
    2.0548    2.7812   -0.3327 H   0  0  0  0  0  0  0  0  0  0  0  0
    1.4671    1.7653   -1.6664 H   0  0  0  0  0  0  0  0  0  0  0  0
    2.9116    2.8068   -1.8887 H   0  0  0  0  0  0  0  0  0  0  0  0
    4.1404    0.8379   -2.5349 H   0  0  0  0  0  0  0  0  0  0  0  0
    2.7220   -0.1946   -2.2378 H   0  0  0  0  0  0  0  0  0  0  0  0
    3.9629   -1.3898   -0.4353 H   0  0  0  0  0  0  0  0  0  0  0  0
    5.3548   -0.3988   -0.6566 H   0  0  0  0  0  0  0  0  0  0  0  0
    3.5219   -2.6806   -3.4696 H   0  0  0  0  0  0  0  0  0  0  0  0
    3.3681   -3.0631   -1.7619 H   0  0  0  0  0  0  0  0  0  0  0  0
    4.2462   -5.0229   -2.9272 H   0  0  0  0  0  0  0  0  0  0  0  0
    5.4380   -4.3945   -1.7913 H   0  0  0  0  0  0  0  0  0  0  0  0
    6.6450   -4.8261   -3.7809 H   0  0  0  0  0  0  0  0  0  0  0  0
    6.6242    0.3873   -2.2674 H   0  0  0  0  0  0  0  0  0  0  0  0
    8.7652    0.5656   -3.4080 H   0  0  0  0  0  0  0  0  0  0  0  0
    8.3549   -3.4331   -4.8933 H   0  0  0  0  0  0  0  0  0  0  0  0
    5.5439   -2.1712   -5.6657 H   0  0  0  0  0  0  0  0  0  0  0  0
    4.6344   -5.1585   -7.7313 H   0  0  0  0  0  0  0  0  0  0  0  0
    2.7243   -3.0388  -10.6453 H   0  0  0  0  0  0  0  0  0  0  0  0
    5.6598   -0.4217   -6.7346 H   0  0  0  0  0  0  0  0  0  0  0  0
    5.0448    1.6420   -7.8856 H   0  0  0  0  0  0  0  0  0  0  0  0
    3.5226    1.5917   -9.8413 H   0  0  0  0  0  0  0  0  0  0  0  0
    2.7057   -0.5626  -10.7081 H   0  0  0  0  0  0  0  0  0  0  0  0
  1  2  1  0  0  0  0
  1 29  1  0  0  0  0
  1 30  1  0  0  0  0
  1 31  1  0  0  0  0
  2  3  1  0  0  0  0
  3  4  1  0  0  0  0
  3 32  1  0  0  0  0
  3 33  1  0  0  0  0
  4  5  1  0  0  0  0
  4 34  1  0  0  0  0
  4 35  1  0  0  0  0
  5  6  1  0  0  0  0
  5 10  1  0  0  0  0
  6  7  1  0  0  0  0
  6 36  1  0  0  0  0
  6 37  1  0  0  0  0
  7  8  1  0  0  0  0
  7 38  1  0  0  0  0
  7 39  1  0  0  0  0
  8  9  1  0  0  0  0
  8 16  1  0  0  0  0
  8 40  1  0  0  0  0
  9 10  1  0  0  0  0
  9 14  2  0  0  0  0
 10 11  2  0  0  0  0
 11 12  1  0  0  0  0
 11 41  1  0  0  0  0
 12 13  2  0  0  0  0
 12 42  1  0  0  0  0
 13 14  1  0  0  0  0
 13 15  1  0  0  0  0
 14 43  1  0  0  0  0
 16 17  2  0  0  0  0
 16 18  1  0  0  0  0
 18 19  1  0  0  0  0
 18 44  1  0  0  0  0
 19 20  1  0  0  0  0
 19 24  2  0  0  0  0
 20 21  2  0  0  0  0
 20 45  1  0  0  0  0
 21 22  1  0  0  0  0
 22 23  2  0  0  0  0
 22 46  1  0  0  0  0
 23 24  1  0  0  0  0
 23 28  1  0  0  0  0
 24 25  1  0  0  0  0
 25 26  2  0  0  0  0
 25 47  1  0  0  0  0
 26 27  1  0  0  0  0
 26 48  1  0  0  0  0
 27 28  2  0  0  0  0
 27 49  1  0  0  0  0
 28 50  1  0  0  0  0
M  END
$$$$
