
 OpenBabel07202414143D

 62 64  0  0  1  0  0  0  0  0999 V2000
   10.9693    0.7341    0.9825 C   0  0  0  0  0  0  0  0  0  0  0  0
    9.6575    1.2712    1.1185 O   0  0  0  0  0  0  0  0  0  0  0  0
    8.7309    0.4244    1.6644 C   0  0  0  0  0  0  0  0  0  0  0  0
    8.9668   -0.7055    2.0399 O   0  0  0  0  0  0  0  0  0  0  0  0
    7.3596    1.1269    1.7877 C   0  0  3  0  0  0  0  0  0  0  0  0
    6.9390    1.1568    3.2503 C   0  0  0  0  0  0  0  0  0  0  0  0
    7.3477    2.4926    1.2536 N   0  0  0  0  0  0  0  0  0  0  0  0
    7.0358    2.7280   -0.0695 C   0  0  0  0  0  0  0  0  0  0  0  0
    6.7192    1.8080   -0.8274 O   0  0  0  0  0  0  0  0  0  0  0  0
    7.1949    4.1952   -0.5811 C   0  0  3  0  0  0  0  0  0  0  0  0
    6.8584    5.2312    0.4964 N   0  0  0  0  0  0  0  0  0  0  0  0
    7.6865    5.9208    1.4248 C   0  0  0  0  0  0  0  0  0  0  0  0
    7.2362    6.6847    2.2814 O   0  0  0  0  0  0  0  0  0  0  0  0
    9.1453    5.7475    1.4319 C   0  0  0  0  0  0  0  0  0  0  0  0
   10.0330    6.6704    1.9653 C   0  0  0  0  0  0  0  0  0  0  0  0
   11.2970    6.1965    1.7984 O   0  0  0  0  0  0  0  0  0  0  0  0
   11.1075    5.0015    1.1838 C   0  0  0  0  0  0  0  0  0  0  0  0
    9.8508    4.6545    0.9969 N   0  0  0  0  0  0  0  0  0  0  0  0
    5.4285    5.4401    0.6958 C   0  0  0  0  0  0  0  0  0  0  0  0
    4.9097    6.7295    0.7696 C   0  0  0  0  0  0  0  0  0  0  0  0
    3.5743    6.9528    1.1268 C   0  0  0  0  0  0  0  0  0  0  0  0
    2.6733    5.9026    1.3734 C   0  0  0  0  0  0  0  0  0  0  0  0
    1.2060    6.1715    1.7708 C   0  0  0  0  0  0  0  0  0  0  0  0
    0.9165    7.6887    1.8339 C   0  0  0  0  0  0  0  0  0  0  0  0
    0.2453    5.5362    0.7448 C   0  0  0  0  0  0  0  0  0  0  0  0
    0.8417    5.5885    3.1564 C   0  0  0  0  0  0  0  0  0  0  0  0
    3.1726    4.6062    1.1927 C   0  0  0  0  0  0  0  0  0  0  0  0
    4.5257    4.3788    0.8644 C   0  0  0  0  0  0  0  0  0  0  0  0
    8.4504    4.3721   -1.4377 C   0  0  0  0  0  0  0  0  0  0  0  0
    9.3522    3.3168   -1.6775 C   0  0  0  0  0  0  0  0  0  0  0  0
   10.6180    3.5659   -2.1970 C   0  0  0  0  0  0  0  0  0  0  0  0
   10.9217    4.8633   -2.5459 C   0  0  0  0  0  0  0  0  0  0  0  0
   10.0118    5.8611   -2.5428 N   0  0  0  0  0  0  0  0  0  0  0  0
    8.7900    5.5863   -2.0166 C   0  0  0  0  0  0  0  0  0  0  0  0
   11.5419    1.4069    0.3386 H   0  0  0  0  0  0  0  0  0  0  0  0
   10.9506   -0.2554    0.5152 H   0  0  0  0  0  0  0  0  0  0  0  0
   11.4551    0.6945    1.9621 H   0  0  0  0  0  0  0  0  0  0  0  0
    6.6433    0.5267    1.2124 H   0  0  0  0  0  0  0  0  0  0  0  0
    7.6679    1.7050    3.8573 H   0  0  0  0  0  0  0  0  0  0  0  0
    6.8595    0.1436    3.6589 H   0  0  0  0  0  0  0  0  0  0  0  0
    5.9672    1.6485    3.3673 H   0  0  0  0  0  0  0  0  0  0  0  0
    7.9697    3.1668    1.6912 H   0  0  0  0  0  0  0  0  0  0  0  0
    6.3763    4.3082   -1.3093 H   0  0  0  0  0  0  0  0  0  0  0  0
    9.9341    7.6296    2.4564 H   0  0  0  0  0  0  0  0  0  0  0  0
   11.9993    4.4501    0.9160 H   0  0  0  0  0  0  0  0  0  0  0  0
    5.5307    7.5944    0.5509 H   0  0  0  0  0  0  0  0  0  0  0  0
    3.2731    7.9934    1.2001 H   0  0  0  0  0  0  0  0  0  0  0  0
    1.0950    8.1703    0.8634 H   0  0  0  0  0  0  0  0  0  0  0  0
    1.5527    8.1809    2.5788 H   0  0  0  0  0  0  0  0  0  0  0  0
   -0.1238    7.8932    2.1099 H   0  0  0  0  0  0  0  0  0  0  0  0
    0.4019    5.9424   -0.2596 H   0  0  0  0  0  0  0  0  0  0  0  0
   -0.8007    5.7206    1.0209 H   0  0  0  0  0  0  0  0  0  0  0  0
    0.3703    4.4490    0.6905 H   0  0  0  0  0  0  0  0  0  0  0  0
    1.4234    6.0501    3.9615 H   0  0  0  0  0  0  0  0  0  0  0  0
    0.9951    4.5054    3.2043 H   0  0  0  0  0  0  0  0  0  0  0  0
   -0.2192    5.7697    3.3827 H   0  0  0  0  0  0  0  0  0  0  0  0
    2.5224    3.7388    1.3040 H   0  0  0  0  0  0  0  0  0  0  0  0
    4.8364    3.3437    0.8069 H   0  0  0  0  0  0  0  0  0  0  0  0
    9.1184    2.2893   -1.4094 H   0  0  0  0  0  0  0  0  0  0  0  0
   11.3539    2.7726   -2.2711 H   0  0  0  0  0  0  0  0  0  0  0  0
   11.9325    5.1427   -2.8301 H   0  0  0  0  0  0  0  0  0  0  0  0
    8.0912    6.4169   -2.0622 H   0  0  0  0  0  0  0  0  0  0  0  0
  1  2  1  0  0  0  0
  1 35  1  0  0  0  0
  1 36  1  0  0  0  0
  1 37  1  0  0  0  0
  2  3  1  0  0  0  0
  3  4  2  0  0  0  0
  3  5  1  0  0  0  0
  5  6  1  0  0  0  0
  5  7  1  0  0  0  0
  5 38  1  0  0  0  0
  6 39  1  0  0  0  0
  6 40  1  0  0  0  0
  6 41  1  0  0  0  0
  7  8  1  0  0  0  0
  7 42  1  0  0  0  0
  8  9  2  0  0  0  0
  8 10  1  0  0  0  0
 10 11  1  0  0  0  0
 10 29  1  0  0  0  0
 10 43  1  0  0  0  0
 11 12  1  0  0  0  0
 11 19  1  0  0  0  0
 12 13  2  0  0  0  0
 12 14  1  0  0  0  0
 14 15  2  0  0  0  0
 14 18  1  0  0  0  0
 15 16  1  0  0  0  0
 15 44  1  0  0  0  0
 16 17  1  0  0  0  0
 17 18  2  0  0  0  0
 17 45  1  0  0  0  0
 19 20  1  0  0  0  0
 19 28  2  0  0  0  0
 20 21  2  0  0  0  0
 20 46  1  0  0  0  0
 21 22  1  0  0  0  0
 21 47  1  0  0  0  0
 22 23  1  0  0  0  0
 22 27  2  0  0  0  0
 23 24  1  0  0  0  0
 23 25  1  0  0  0  0
 23 26  1  0  0  0  0
 24 48  1  0  0  0  0
 24 49  1  0  0  0  0
 24 50  1  0  0  0  0
 25 51  1  0  0  0  0
 25 52  1  0  0  0  0
 25 53  1  0  0  0  0
 26 54  1  0  0  0  0
 26 55  1  0  0  0  0
 26 56  1  0  0  0  0
 27 28  1  0  0  0  0
 27 57  1  0  0  0  0
 28 58  1  0  0  0  0
 29 30  1  0  0  0  0
 29 34  2  0  0  0  0
 30 31  2  0  0  0  0
 30 59  1  0  0  0  0
 31 32  1  0  0  0  0
 31 60  1  0  0  0  0
 32 33  2  0  0  0  0
 32 61  1  0  0  0  0
 33 34  1  0  0  0  0
 34 62  1  0  0  0  0
M  END
$$$$
