
 OpenBabel07202414113D

 64 69  0  0  1  0  0  0  0  0999 V2000
    2.8673   -0.6605   -1.8788 C   0  0  0  0  0  0  0  0  0  0  0  0
    4.2716   -0.1401   -1.7400 C   0  0  0  0  0  0  0  0  0  0  0  0
    5.2378   -0.8072   -2.1083 O   0  0  0  0  0  0  0  0  0  0  0  0
    4.4067    1.1081   -1.1918 N   0  0  0  0  0  0  0  0  0  0  0  0
    3.3606    2.0542   -0.7773 C   0  0  0  0  0  0  0  0  0  0  0  0
    4.2096    3.3132   -0.4326 C   0  0  3  0  0  0  0  0  0  0  0  0
    5.4508    2.6470    0.1838 C   0  0  0  0  0  0  0  0  0  0  0  0
    5.6975    1.7864   -1.0635 C   0  0  3  0  0  0  0  0  0  0  0  0
    5.7904    2.8804   -2.1532 C   0  0  0  0  0  0  0  0  0  0  0  0
    4.7990    3.8547   -1.6722 N   0  0  0  0  0  0  0  0  0  0  0  0
    4.6701    5.0938   -2.2422 C   0  0  0  0  0  0  0  0  0  0  0  0
    5.3714    5.4310   -3.1949 O   0  0  0  0  0  0  0  0  0  0  0  0
    3.6852    6.0547   -1.5892 C   0  0  0  0  0  0  0  0  0  0  0  0
    3.2698    7.2689   -2.4887 C   0  0  3  0  0  0  0  0  0  0  0  0
    2.6304    6.6756   -3.7885 C   0  0  0  0  0  0  0  0  0  0  0  0
    2.2023    5.5199   -3.7868 O   0  0  0  0  0  0  0  0  0  0  0  0
    2.4727    7.5530   -4.8473 N   0  0  0  0  0  0  0  0  0  0  0  0
    1.8235    7.2978   -6.0898 C   0  0  0  0  0  0  0  0  0  0  0  0
    1.2755    6.0561   -6.4178 C   0  0  0  0  0  0  0  0  0  0  0  0
    0.5035    5.8154   -7.5039 N   0  0  0  0  0  0  0  0  0  0  0  0
    0.3195    6.8463   -8.3492 C   0  0  0  0  0  0  0  0  0  0  0  0
    0.9254    8.0926   -8.2146 C   0  0  0  0  0  0  0  0  0  0  0  0
    0.7969    9.0615   -9.2257 C   0  0  0  0  0  0  0  0  0  0  0  0
    1.4410   10.2908   -9.1163 C   0  0  0  0  0  0  0  0  0  0  0  0
    2.1770   10.5793   -7.9758 C   0  0  0  0  0  0  0  0  0  0  0  0
    2.2902    9.6303   -6.9533 C   0  0  0  0  0  0  0  0  0  0  0  0
    1.6911    8.3458   -7.0504 C   0  0  0  0  0  0  0  0  0  0  0  0
    4.4542    8.2218   -2.7896 C   0  0  0  0  0  0  0  0  0  0  0  0
    4.8577    8.9897   -1.5447 C   0  0  0  0  0  0  0  0  0  0  0  0
    3.8064    9.8509   -1.1130 O   0  0  0  0  0  0  0  0  0  0  0  0
    2.5725    9.2661   -1.0378 C   0  0  0  0  0  0  0  0  0  0  0  0
    1.6394    9.9698   -0.2708 C   0  0  0  0  0  0  0  0  0  0  0  0
    0.3516    9.4676   -0.0944 C   0  0  0  0  0  0  0  0  0  0  0  0
   -0.0032    8.2704   -0.7045 C   0  0  0  0  0  0  0  0  0  0  0  0
   -1.5812    7.6285   -0.4656 Cl  0  0  0  0  0  0  0  0  0  0  0  0
    0.9172    7.5765   -1.4949 C   0  0  0  0  0  0  0  0  0  0  0  0
    2.2257    8.0657   -1.6796 C   0  0  0  0  0  0  0  0  0  0  0  0
    2.8949   -1.7223   -2.1318 H   0  0  0  0  0  0  0  0  0  0  0  0
    2.3493   -0.1207   -2.6690 H   0  0  0  0  0  0  0  0  0  0  0  0
    2.3217   -0.5602   -0.9315 H   0  0  0  0  0  0  0  0  0  0  0  0
    2.8525    1.6481    0.1040 H   0  0  0  0  0  0  0  0  0  0  0  0
    2.6493    2.2152   -1.5904 H   0  0  0  0  0  0  0  0  0  0  0  0
    3.7043    4.0578    0.1834 H   0  0  0  0  0  0  0  0  0  0  0  0
    5.2211    2.0680    1.0837 H   0  0  0  0  0  0  0  0  0  0  0  0
    6.2655    3.3533    0.3865 H   0  0  0  0  0  0  0  0  0  0  0  0
    6.5511    1.1023   -1.0282 H   0  0  0  0  0  0  0  0  0  0  0  0
    5.5044    2.5311   -3.1509 H   0  0  0  0  0  0  0  0  0  0  0  0
    6.7728    3.3611   -2.1854 H   0  0  0  0  0  0  0  0  0  0  0  0
    4.1269    6.3961   -0.6455 H   0  0  0  0  0  0  0  0  0  0  0  0
    2.7900    5.4778   -1.3226 H   0  0  0  0  0  0  0  0  0  0  0  0
    2.7302    8.5126   -4.6877 H   0  0  0  0  0  0  0  0  0  0  0  0
    1.4297    5.1696   -5.8132 H   0  0  0  0  0  0  0  0  0  0  0  0
   -0.3417    6.6257   -9.1835 H   0  0  0  0  0  0  0  0  0  0  0  0
    0.2214    8.8491  -10.1240 H   0  0  0  0  0  0  0  0  0  0  0  0
    1.3762   11.0145   -9.9249 H   0  0  0  0  0  0  0  0  0  0  0  0
    2.6804   11.5389   -7.8842 H   0  0  0  0  0  0  0  0  0  0  0  0
    2.8950    9.9099   -6.0964 H   0  0  0  0  0  0  0  0  0  0  0  0
    4.1746    8.9752   -3.5348 H   0  0  0  0  0  0  0  0  0  0  0  0
    5.3199    7.7063   -3.2076 H   0  0  0  0  0  0  0  0  0  0  0  0
    5.7164    9.6263   -1.7743 H   0  0  0  0  0  0  0  0  0  0  0  0
    5.1599    8.3392   -0.7158 H   0  0  0  0  0  0  0  0  0  0  0  0
    1.9254   10.9030    0.2081 H   0  0  0  0  0  0  0  0  0  0  0  0
   -0.3602   10.0092    0.5235 H   0  0  0  0  0  0  0  0  0  0  0  0
    0.6064    6.6378   -1.9530 H   0  0  0  0  0  0  0  0  0  0  0  0
  1  2  1  0  0  0  0
  1 38  1  0  0  0  0
  1 39  1  0  0  0  0
  1 40  1  0  0  0  0
  2  3  2  0  0  0  0
  2  4  1  0  0  0  0
  4  5  1  0  0  0  0
  4  8  1  0  0  0  0
  5  6  1  0  0  0  0
  5 41  1  0  0  0  0
  5 42  1  0  0  0  0
  6  7  1  0  0  0  0
  6 10  1  0  0  0  0
  6 43  1  0  0  0  0
  7  8  1  0  0  0  0
  7 44  1  0  0  0  0
  7 45  1  0  0  0  0
  8  9  1  0  0  0  0
  8 46  1  0  0  0  0
  9 10  1  0  0  0  0
  9 47  1  0  0  0  0
  9 48  1  0  0  0  0
 10 11  1  0  0  0  0
 11 12  2  0  0  0  0
 11 13  1  0  0  0  0
 13 14  1  0  0  0  0
 13 49  1  0  0  0  0
 13 50  1  0  0  0  0
 14 15  1  0  0  0  0
 14 28  1  0  0  0  0
 14 37  1  0  0  0  0
 15 16  2  0  0  0  0
 15 17  1  0  0  0  0
 17 18  1  0  0  0  0
 17 51  1  0  0  0  0
 18 19  1  0  0  0  0
 18 27  2  0  0  0  0
 19 20  2  0  0  0  0
 19 52  1  0  0  0  0
 20 21  1  0  0  0  0
 21 22  2  0  0  0  0
 21 53  1  0  0  0  0
 22 23  1  0  0  0  0
 22 27  1  0  0  0  0
 23 24  2  0  0  0  0
 23 54  1  0  0  0  0
 24 25  1  0  0  0  0
 24 55  1  0  0  0  0
 25 26  2  0  0  0  0
 25 56  1  0  0  0  0
 26 27  1  0  0  0  0
 26 57  1  0  0  0  0
 28 29  1  0  0  0  0
 28 58  1  0  0  0  0
 28 59  1  0  0  0  0
 29 30  1  0  0  0  0
 29 60  1  0  0  0  0
 29 61  1  0  0  0  0
 30 31  1  0  0  0  0
 31 32  1  0  0  0  0
 31 37  2  0  0  0  0
 32 33  2  0  0  0  0
 32 62  1  0  0  0  0
 33 34  1  0  0  0  0
 33 63  1  0  0  0  0
 34 35  1  0  0  0  0
 34 36  2  0  0  0  0
 36 37  1  0  0  0  0
 36 64  1  0  0  0  0
M  END
$$$$
