
 OpenBabel07202414133D

 67 71  0  0  1  0  0  0  0  0999 V2000
    3.5722   -2.1080   -4.3373 C   0  0  0  0  0  0  0  0  0  0  0  0
    5.0268   -1.6651   -4.3472 C   0  0  0  0  0  0  0  0  0  0  0  0
    5.3058   -0.6178   -3.2890 C   0  0  0  0  0  0  0  0  0  0  0  0
    4.4558   -0.2066   -2.5044 O   0  0  0  0  0  0  0  0  0  0  0  0
    6.6191   -0.1822   -3.2684 N   0  0  0  0  0  0  0  0  0  0  0  0
    7.1238    0.5807   -2.1337 C   0  0  0  0  0  0  0  0  0  0  0  0
    6.5877    2.0208   -2.0512 C   0  0  2  0  0  0  0  0  0  0  0  0
    7.0152    2.7848   -3.3131 C   0  0  0  0  0  0  0  0  0  0  0  0
    7.5719    4.0352   -2.8773 N   0  0  0  0  0  0  0  0  0  0  0  0
    8.5161    4.7072   -3.7065 C   0  0  0  0  0  0  0  0  0  0  0  0
    8.1158    5.4743   -4.8258 C   0  0  0  0  0  0  0  0  0  0  0  0
    9.1213    6.0864   -5.6169 C   0  0  0  0  0  0  0  0  0  0  0  0
   10.4555    5.8756   -5.2650 C   0  0  0  0  0  0  0  0  0  0  0  0
   10.8603    5.1427   -4.2057 N   0  0  0  0  0  0  0  0  0  0  0  0
    9.8857    4.6011   -3.4432 C   0  0  0  0  0  0  0  0  0  0  0  0
    8.7655    6.8995   -6.7061 C   0  0  0  0  0  0  0  0  0  0  0  0
    7.4335    7.1249   -7.0228 C   0  0  0  0  0  0  0  0  0  0  0  0
    6.4325    6.5340   -6.2566 C   0  0  0  0  0  0  0  0  0  0  0  0
    6.7702    5.7186   -5.1730 C   0  0  0  0  0  0  0  0  0  0  0  0
    7.5923    4.1641   -1.4975 C   0  0  0  0  0  0  0  0  0  0  0  0
    8.0507    5.1207   -0.8879 O   0  0  0  0  0  0  0  0  0  0  0  0
    7.0200    2.9087   -0.8300 C   0  0  2  0  0  0  0  0  0  0  0  0
    8.1477    2.3940    0.0812 C   0  0  0  0  0  0  0  0  0  0  0  0
    7.7050    1.2977    1.0327 C   0  0  0  0  0  0  0  0  0  0  0  0
    6.5204    1.7231    1.8799 C   0  0  0  0  0  0  0  0  0  0  0  0
    5.3948    2.2888    1.0719 N   0  0  0  0  0  0  0  0  0  0  0  0
    4.1167    2.8815    2.1345 S   0  0  0  0  0  0  0  0  0  0  0  0
    4.5270    2.6489    3.5049 O   0  0  0  0  0  0  0  0  0  0  0  0
    3.7555    4.1985    1.6681 O   0  0  0  0  0  0  0  0  0  0  0  0
    2.7653    1.7485    1.7771 C   0  0  0  0  0  0  0  0  0  0  0  0
    1.5989    2.1675    2.6697 C   0  0  0  0  0  0  0  0  0  0  0  0
    1.0585    3.4934    2.4430 C   0  0  0  0  0  0  0  0  0  0  0  0
    0.5606    4.5256    2.2780 N   0  0  0  0  0  0  0  0  0  0  0  0
    0.5450    1.1090    2.9790 C   0  0  0  0  0  0  0  0  0  0  0  0
    1.4535    1.5818    4.0670 C   0  0  0  0  0  0  0  0  0  0  0  0
    5.8287    3.3419    0.0638 C   0  0  0  0  0  0  0  0  0  0  0  0
    3.4056   -2.9020   -5.0714 H   0  0  0  0  0  0  0  0  0  0  0  0
    2.9083   -1.2715   -4.5795 H   0  0  0  0  0  0  0  0  0  0  0  0
    3.2826   -2.4886   -3.3520 H   0  0  0  0  0  0  0  0  0  0  0  0
    5.2867   -1.2622   -5.3317 H   0  0  0  0  0  0  0  0  0  0  0  0
    5.6681   -2.5333   -4.1478 H   0  0  0  0  0  0  0  0  0  0  0  0
    7.2885   -0.7152   -3.8134 H   0  0  0  0  0  0  0  0  0  0  0  0
    8.2173    0.5682   -2.2029 H   0  0  0  0  0  0  0  0  0  0  0  0
    6.8216    0.0039   -1.2616 H   0  0  0  0  0  0  0  0  0  0  0  0
    5.4932    1.9722   -2.0613 H   0  0  0  0  0  0  0  0  0  0  0  0
    6.1486    2.9857   -3.9519 H   0  0  0  0  0  0  0  0  0  0  0  0
    7.7593    2.2406   -3.9078 H   0  0  0  0  0  0  0  0  0  0  0  0
   11.2638    6.3192   -5.8396 H   0  0  0  0  0  0  0  0  0  0  0  0
   10.2540    4.0276   -2.5977 H   0  0  0  0  0  0  0  0  0  0  0  0
    9.5399    7.3835   -7.3072 H   0  0  0  0  0  0  0  0  0  0  0  0
    7.1684    7.7739   -7.8544 H   0  0  0  0  0  0  0  0  0  0  0  0
    5.3870    6.7201   -6.4888 H   0  0  0  0  0  0  0  0  0  0  0  0
    5.9646    5.3014   -4.5742 H   0  0  0  0  0  0  0  0  0  0  0  0
    8.5040    3.2271    0.7088 H   0  0  0  0  0  0  0  0  0  0  0  0
    9.0219    2.0843   -0.5018 H   0  0  0  0  0  0  0  0  0  0  0  0
    8.5417    1.0415    1.6934 H   0  0  0  0  0  0  0  0  0  0  0  0
    7.4661    0.3784    0.5049 H   0  0  0  0  0  0  0  0  0  0  0  0
    6.8635    2.4644    2.6101 H   0  0  0  0  0  0  0  0  0  0  0  0
    6.1541    0.8407    2.4176 H   0  0  0  0  0  0  0  0  0  0  0  0
    3.1064    0.7364    2.0121 H   0  0  0  0  0  0  0  0  0  0  0  0
    2.5072    1.8319    0.7196 H   0  0  0  0  0  0  0  0  0  0  0  0
    0.6753    0.0986    2.6101 H   0  0  0  0  0  0  0  0  0  0  0  0
   -0.5022    1.4129    3.0301 H   0  0  0  0  0  0  0  0  0  0  0  0
    2.1986    0.8864    4.4417 H   0  0  0  0  0  0  0  0  0  0  0  0
    1.0269    2.2034    4.8532 H   0  0  0  0  0  0  0  0  0  0  0  0
    6.0984    4.2491    0.6207 H   0  0  0  0  0  0  0  0  0  0  0  0
    4.9663    3.5905   -0.5694 H   0  0  0  0  0  0  0  0  0  0  0  0
  1  2  1  0  0  0  0
  1 37  1  0  0  0  0
  1 38  1  0  0  0  0
  1 39  1  0  0  0  0
  2  3  1  0  0  0  0
  2 40  1  0  0  0  0
  2 41  1  0  0  0  0
  3  4  2  0  0  0  0
  3  5  1  0  0  0  0
  5  6  1  0  0  0  0
  5 42  1  0  0  0  0
  6 43  1  0  0  0  0
  6 44  1  0  0  0  0
  7  8  1  0  0  0  0
  7 22  1  0  0  0  0
  7  6  1  0  0  0  0
  7 45  1  1  0  0  0
  8  9  1  0  0  0  0
  8 46  1  0  0  0  0
  8 47  1  0  0  0  0
  9 10  1  0  0  0  0
  9 20  1  0  0  0  0
 10 11  2  0  0  0  0
 10 15  1  0  0  0  0
 11 12  1  0  0  0  0
 11 19  1  0  0  0  0
 12 13  2  0  0  0  0
 12 16  1  0  0  0  0
 13 14  1  0  0  0  0
 13 48  1  0  0  0  0
 14 15  2  0  0  0  0
 15 49  1  0  0  0  0
 16 17  2  0  0  0  0
 16 50  1  0  0  0  0
 17 18  1  0  0  0  0
 17 51  1  0  0  0  0
 18 19  2  0  0  0  0
 18 52  1  0  0  0  0
 19 53  1  0  0  0  0
 20 21  2  0  0  0  0
 22 20  1  6  0  0  0
 22 23  1  0  0  0  0
 22 36  1  0  0  0  0
 23 24  1  0  0  0  0
 23 54  1  0  0  0  0
 23 55  1  0  0  0  0
 24 25  1  0  0  0  0
 24 56  1  0  0  0  0
 24 57  1  0  0  0  0
 25 26  1  0  0  0  0
 25 58  1  0  0  0  0
 25 59  1  0  0  0  0
 26 27  1  0  0  0  0
 26 36  1  0  0  0  0
 27 28  2  0  0  0  0
 27 29  2  0  0  0  0
 27 30  1  0  0  0  0
 30 31  1  0  0  0  0
 30 60  1  0  0  0  0
 30 61  1  0  0  0  0
 31 32  1  0  0  0  0
 31 34  1  0  0  0  0
 31 35  1  0  0  0  0
 32 33  3  0  0  0  0
 34 35  1  0  0  0  0
 34 62  1  0  0  0  0
 34 63  1  0  0  0  0
 35 64  1  0  0  0  0
 35 65  1  0  0  0  0
 36 66  1  0  0  0  0
 36 67  1  0  0  0  0
M  END
$$$$
