
 OpenBabel07202414173D

 50 54  0  0  1  0  0  0  0  0999 V2000
    0.9219    0.1733   -0.0805 Cl  0  0  0  0  0  0  0  0  0  0  0  0
    2.6333    0.0875    0.0542 C   0  0  0  0  0  0  0  0  0  0  0  0
    3.4012    1.2437   -0.0837 C   0  0  0  0  0  0  0  0  0  0  0  0
    4.7922    1.1794    0.0418 C   0  0  0  0  0  0  0  0  0  0  0  0
    5.4165   -0.0458    0.2978 C   0  0  0  0  0  0  0  0  0  0  0  0
    4.6402   -1.2163    0.4335 C   0  0  0  0  0  0  0  0  0  0  0  0
    3.2441   -1.1403    0.3117 C   0  0  0  0  0  0  0  0  0  0  0  0
    5.3088   -2.5428    0.7223 C   0  0  3  0  0  0  0  0  0  0  0  0
    5.2880   -2.9450    2.2020 C   0  0  0  0  0  0  0  0  0  0  0  0
    4.8545   -4.0543    2.5233 O   0  0  0  0  0  0  0  0  0  0  0  0
    5.7831   -2.0040    3.0805 N   0  0  0  0  0  0  0  0  0  0  0  0
    5.7612   -2.0391    4.4985 C   0  0  0  0  0  0  0  0  0  0  0  0
    5.4502   -3.1927    5.2173 C   0  0  0  0  0  0  0  0  0  0  0  0
    5.2441   -3.2276    6.5533 N   0  0  0  0  0  0  0  0  0  0  0  0
    5.3969   -2.0634    7.2156 C   0  0  0  0  0  0  0  0  0  0  0  0
    5.8395   -0.8753    6.6360 C   0  0  0  0  0  0  0  0  0  0  0  0
    6.0979    0.2612    7.4245 C   0  0  0  0  0  0  0  0  0  0  0  0
    6.5523    1.4427    6.8451 C   0  0  0  0  0  0  0  0  0  0  0  0
    6.7189    1.5108    5.4699 C   0  0  0  0  0  0  0  0  0  0  0  0
    6.4554    0.3901    4.6762 C   0  0  0  0  0  0  0  0  0  0  0  0
    6.0262   -0.8452    5.2343 C   0  0  0  0  0  0  0  0  0  0  0  0
    6.7317   -2.5041    0.1715 C   0  0  0  0  0  0  0  0  0  0  0  0
    7.4699   -1.3465    0.6902 N   0  0  0  0  0  0  0  0  0  0  0  0
    8.6971   -1.4989    1.4991 C   0  0  3  0  0  0  0  0  0  0  0  0
    9.0670   -2.9249    1.9344 C   0  0  0  0  0  0  0  0  0  0  0  0
   10.5170   -2.8155    2.3501 C   0  0  0  0  0  0  0  0  0  0  0  0
   11.0301   -1.8010    1.4807 N   0  0  0  0  0  0  0  0  0  0  0  0
   10.0282   -1.0352    0.8901 C   0  0  0  0  0  0  0  0  0  0  0  0
   10.2374   -0.1391    0.0971 O   0  0  0  0  0  0  0  0  0  0  0  0
    6.8871   -0.0833    0.6048 C   0  0  0  0  0  0  0  0  0  0  0  0
    7.4468    0.9570    0.9291 O   0  0  0  0  0  0  0  0  0  0  0  0
    2.9212    2.2018   -0.2715 H   0  0  0  0  0  0  0  0  0  0  0  0
    5.3834    2.0907   -0.0390 H   0  0  0  0  0  0  0  0  0  0  0  0
    2.6321   -2.0339    0.4230 H   0  0  0  0  0  0  0  0  0  0  0  0
    4.7666   -3.3238    0.1709 H   0  0  0  0  0  0  0  0  0  0  0  0
    6.0380   -1.1149    2.6776 H   0  0  0  0  0  0  0  0  0  0  0  0
    5.3596   -4.1650    4.7442 H   0  0  0  0  0  0  0  0  0  0  0  0
    5.1469   -2.1157    8.2727 H   0  0  0  0  0  0  0  0  0  0  0  0
    5.9675    0.2243    8.5044 H   0  0  0  0  0  0  0  0  0  0  0  0
    6.7777    2.3062    7.4657 H   0  0  0  0  0  0  0  0  0  0  0  0
    7.0611    2.4334    5.0054 H   0  0  0  0  0  0  0  0  0  0  0  0
    6.6175    0.5140    3.6095 H   0  0  0  0  0  0  0  0  0  0  0  0
    6.7030   -2.3802   -0.9172 H   0  0  0  0  0  0  0  0  0  0  0  0
    7.2295   -3.4497    0.3644 H   0  0  0  0  0  0  0  0  0  0  0  0
    8.5538   -0.8814    2.4000 H   0  0  0  0  0  0  0  0  0  0  0  0
    9.0314   -3.6216    1.0900 H   0  0  0  0  0  0  0  0  0  0  0  0
    8.4204   -3.3163    2.7271 H   0  0  0  0  0  0  0  0  0  0  0  0
   11.0610   -3.7497    2.1873 H   0  0  0  0  0  0  0  0  0  0  0  0
   10.6320   -2.4940    3.3890 H   0  0  0  0  0  0  0  0  0  0  0  0
   12.0063   -1.6157    1.2874 H   0  0  0  0  0  0  0  0  0  0  0  0
  1  2  1  0  0  0  0
  2  3  1  0  0  0  0
  2  7  2  0  0  0  0
  3  4  2  0  0  0  0
  3 32  1  0  0  0  0
  4  5  1  0  0  0  0
  4 33  1  0  0  0  0
  5  6  2  0  0  0  0
  5 30  1  0  0  0  0
  6  7  1  0  0  0  0
  6  8  1  0  0  0  0
  7 34  1  0  0  0  0
  8  9  1  0  0  0  0
  8 22  1  0  0  0  0
  8 35  1  0  0  0  0
  9 10  2  0  0  0  0
  9 11  1  0  0  0  0
 11 12  1  0  0  0  0
 11 36  1  0  0  0  0
 12 13  1  0  0  0  0
 12 21  2  0  0  0  0
 13 14  2  0  0  0  0
 13 37  1  0  0  0  0
 14 15  1  0  0  0  0
 15 16  2  0  0  0  0
 15 38  1  0  0  0  0
 16 17  1  0  0  0  0
 16 21  1  0  0  0  0
 17 18  2  0  0  0  0
 17 39  1  0  0  0  0
 18 19  1  0  0  0  0
 18 40  1  0  0  0  0
 19 20  2  0  0  0  0
 19 41  1  0  0  0  0
 20 21  1  0  0  0  0
 20 42  1  0  0  0  0
 22 23  1  0  0  0  0
 22 43  1  0  0  0  0
 22 44  1  0  0  0  0
 23 24  1  0  0  0  0
 23 30  1  0  0  0  0
 24 25  1  0  0  0  0
 24 28  1  0  0  0  0
 24 45  1  0  0  0  0
 25 26  1  0  0  0  0
 25 46  1  0  0  0  0
 25 47  1  0  0  0  0
 26 27  1  0  0  0  0
 26 48  1  0  0  0  0
 26 49  1  0  0  0  0
 27 28  1  0  0  0  0
 27 50  1  0  0  0  0
 28 29  2  0  0  0  0
 30 31  2  0  0  0  0
M  END
$$$$
