
 OpenBabel07202414133D

 52 54  0  0  0  0  0  0  0  0999 V2000
    0.7923   -2.8575   -0.3379 C   0  0  0  0  0  0  0  0  0  0  0  0
    2.3074   -2.7665   -0.1721 C   0  0  0  0  0  0  0  0  0  0  0  0
    2.8327   -2.1833    1.1771 C   0  0  0  0  0  0  0  0  0  0  0  0
    2.2824   -0.7617    1.3917 C   0  0  0  0  0  0  0  0  0  0  0  0
    2.3689   -3.0733    2.3450 C   0  0  0  0  0  0  0  0  0  0  0  0
    4.3991   -2.1602    1.0877 C   0  0  0  0  0  0  0  0  0  0  0  0
    5.1461   -1.5356    2.2802 C   0  0  0  0  0  0  0  0  0  0  0  0
    6.6220   -1.6394    2.2001 N   0  0  0  0  0  0  0  0  0  0  0  0
    7.3184   -0.9938    1.0716 C   0  0  0  0  0  0  0  0  0  0  0  0
    7.2599    0.5084    1.0946 C   0  0  0  0  0  0  0  0  0  0  0  0
    8.4009    1.3587    1.3108 C   0  0  0  0  0  0  0  0  0  0  0  0
    8.1071    2.7007    1.2125 C   0  0  0  0  0  0  0  0  0  0  0  0
    6.4635    2.9643    0.8448 S   0  0  0  0  0  0  0  0  0  0  0  0
    6.1533    1.2837    0.7911 C   0  0  0  0  0  0  0  0  0  0  0  0
    7.2516   -2.4399    3.1565 C   0  0  0  0  0  0  0  0  0  0  0  0
    6.5973   -3.1122    3.9635 O   0  0  0  0  0  0  0  0  0  0  0  0
    8.7649   -2.5113    3.2445 C   0  0  0  0  0  0  0  0  0  0  0  0
    9.3036   -1.4045    3.9974 N   0  0  0  0  0  0  0  0  0  0  0  0
   10.1832   -0.5645    3.4143 N   0  0  0  0  0  0  0  0  0  0  0  0
   10.4638    0.3904    4.2926 N   0  0  0  0  0  0  0  0  0  0  0  0
    9.8088    0.1027    5.4599 C   0  0  0  0  0  0  0  0  0  0  0  0
    9.7760    0.7780    6.6861 C   0  0  0  0  0  0  0  0  0  0  0  0
    9.0276    0.2305    7.7365 C   0  0  0  0  0  0  0  0  0  0  0  0
    8.3348   -0.9714    7.5690 C   0  0  0  0  0  0  0  0  0  0  0  0
    8.3485   -1.6543    6.3478 C   0  0  0  0  0  0  0  0  0  0  0  0
    9.0874   -1.0763    5.3101 C   0  0  0  0  0  0  0  0  0  0  0  0
    0.5550   -3.2836   -1.3190 H   0  0  0  0  0  0  0  0  0  0  0  0
    0.3169   -1.8738   -0.2907 H   0  0  0  0  0  0  0  0  0  0  0  0
    0.3358   -3.5050    0.4153 H   0  0  0  0  0  0  0  0  0  0  0  0
    2.6944   -2.1601   -1.0011 H   0  0  0  0  0  0  0  0  0  0  0  0
    2.7197   -3.7744   -0.3112 H   0  0  0  0  0  0  0  0  0  0  0  0
    1.1883   -0.7568    1.4514 H   0  0  0  0  0  0  0  0  0  0  0  0
    2.5784   -0.0971    0.5725 H   0  0  0  0  0  0  0  0  0  0  0  0
    2.6433   -0.3251    2.3277 H   0  0  0  0  0  0  0  0  0  0  0  0
    1.2760   -3.1039    2.4185 H   0  0  0  0  0  0  0  0  0  0  0  0
    2.7297   -2.7034    3.3095 H   0  0  0  0  0  0  0  0  0  0  0  0
    2.7236   -4.1024    2.2234 H   0  0  0  0  0  0  0  0  0  0  0  0
    4.6779   -1.6148    0.1775 H   0  0  0  0  0  0  0  0  0  0  0  0
    4.7626   -3.1877    0.9470 H   0  0  0  0  0  0  0  0  0  0  0  0
    4.7991   -2.0090    3.2016 H   0  0  0  0  0  0  0  0  0  0  0  0
    4.8991   -0.4766    2.3911 H   0  0  0  0  0  0  0  0  0  0  0  0
    6.8808   -1.3697    0.1404 H   0  0  0  0  0  0  0  0  0  0  0  0
    8.3640   -1.2977    1.0380 H   0  0  0  0  0  0  0  0  0  0  0  0
    9.4055    1.0071    1.5154 H   0  0  0  0  0  0  0  0  0  0  0  0
    8.7855    3.5349    1.3307 H   0  0  0  0  0  0  0  0  0  0  0  0
    5.1591    0.9489    0.5343 H   0  0  0  0  0  0  0  0  0  0  0  0
    9.2458   -2.5791    2.2685 H   0  0  0  0  0  0  0  0  0  0  0  0
    9.0425   -3.4257    3.7830 H   0  0  0  0  0  0  0  0  0  0  0  0
   10.3168    1.7115    6.8147 H   0  0  0  0  0  0  0  0  0  0  0  0
    8.9869    0.7445    8.6942 H   0  0  0  0  0  0  0  0  0  0  0  0
    7.7651   -1.3828    8.4003 H   0  0  0  0  0  0  0  0  0  0  0  0
    7.7982   -2.5816    6.2211 H   0  0  0  0  0  0  0  0  0  0  0  0
  1  2  1  0  0  0  0
  1 27  1  0  0  0  0
  1 28  1  0  0  0  0
  1 29  1  0  0  0  0
  2  3  1  0  0  0  0
  2 30  1  0  0  0  0
  2 31  1  0  0  0  0
  3  4  1  0  0  0  0
  3  5  1  0  0  0  0
  3  6  1  0  0  0  0
  4 32  1  0  0  0  0
  4 33  1  0  0  0  0
  4 34  1  0  0  0  0
  5 35  1  0  0  0  0
  5 36  1  0  0  0  0
  5 37  1  0  0  0  0
  6  7  1  0  0  0  0
  6 38  1  0  0  0  0
  6 39  1  0  0  0  0
  7  8  1  0  0  0  0
  7 40  1  0  0  0  0
  7 41  1  0  0  0  0
  8  9  1  0  0  0  0
  8 15  1  0  0  0  0
  9 10  1  0  0  0  0
  9 42  1  0  0  0  0
  9 43  1  0  0  0  0
 10 11  1  0  0  0  0
 10 14  2  0  0  0  0
 11 12  2  0  0  0  0
 11 44  1  0  0  0  0
 12 13  1  0  0  0  0
 12 45  1  0  0  0  0
 13 14  1  0  0  0  0
 14 46  1  0  0  0  0
 15 16  2  0  0  0  0
 15 17  1  0  0  0  0
 17 18  1  0  0  0  0
 17 47  1  0  0  0  0
 17 48  1  0  0  0  0
 18 19  1  0  0  0  0
 18 26  1  0  0  0  0
 19 20  2  0  0  0  0
 20 21  1  0  0  0  0
 21 22  1  0  0  0  0
 21 26  2  0  0  0  0
 22 23  2  0  0  0  0
 22 49  1  0  0  0  0
 23 24  1  0  0  0  0
 23 50  1  0  0  0  0
 24 25  2  0  0  0  0
 24 51  1  0  0  0  0
 25 26  1  0  0  0  0
 25 52  1  0  0  0  0
M  END
$$$$
