
 OpenBabel07202414213D

 57 61  0  0  0  0  0  0  0  0999 V2000
   -0.8720   -1.0495    2.6537 C   0  0  0  0  0  0  0  0  0  0  0  0
    0.1917   -0.7162    1.8105 C   0  0  0  0  0  0  0  0  0  0  0  0
    0.1656    0.4388    1.0156 C   0  0  0  0  0  0  0  0  0  0  0  0
   -0.9647    1.2598    1.1253 C   0  0  0  0  0  0  0  0  0  0  0  0
   -2.0351    0.9419    1.9587 C   0  0  0  0  0  0  0  0  0  0  0  0
   -1.9999   -0.2262    2.7329 C   0  0  0  0  0  0  0  0  0  0  0  0
   -3.0011    1.9062    1.8542 N   0  0  0  0  0  0  0  0  0  0  0  0
   -2.5833    2.8104    0.9871 N   0  0  0  0  0  0  0  0  0  0  0  0
   -1.3589    2.4419    0.5492 N   0  0  0  0  0  0  0  0  0  0  0  0
   -0.7647    3.1815   -0.5453 C   0  0  0  0  0  0  0  0  0  0  0  0
    0.7050    3.5530   -0.3527 C   0  0  0  0  0  0  0  0  0  0  0  0
    1.5770    2.7498   -0.7028 O   0  0  0  0  0  0  0  0  0  0  0  0
    1.0463    4.8186    0.1558 N   0  0  0  0  0  0  0  0  0  0  0  0
    2.4573    5.2564    0.0604 C   0  0  0  0  0  0  0  0  0  0  0  0
    3.1437    5.5241    1.3960 C   0  0  0  0  0  0  0  0  0  0  0  0
    2.9448    4.7032    2.5110 C   0  0  0  0  0  0  0  0  0  0  0  0
    3.5543    5.0029    3.7356 C   0  0  0  0  0  0  0  0  0  0  0  0
    4.3958    6.1083    3.8479 C   0  0  0  0  0  0  0  0  0  0  0  0
    4.6570    6.8829    2.7240 C   0  0  0  0  0  0  0  0  0  0  0  0
    4.0588    6.5852    1.5010 C   0  0  0  0  0  0  0  0  0  0  0  0
    5.7226    8.2341    2.8484 Cl  0  0  0  0  0  0  0  0  0  0  0  0
    0.0457    5.8212    0.2290 C   0  0  0  0  0  0  0  0  0  0  0  0
   -0.8516    5.8131    1.2937 C   0  0  0  0  0  0  0  0  0  0  0  0
   -2.0412    6.5463    1.2062 C   0  0  0  0  0  0  0  0  0  0  0  0
   -2.3656    7.3110    0.0744 C   0  0  0  0  0  0  0  0  0  0  0  0
   -1.4132    7.3523   -0.9539 C   0  0  0  0  0  0  0  0  0  0  0  0
   -0.2203    6.6202   -0.8854 C   0  0  0  0  0  0  0  0  0  0  0  0
   -3.5537    8.0066    0.0124 N   0  0  0  0  0  0  0  0  0  0  0  0
   -3.7335    9.2078   -0.8114 C   0  0  0  0  0  0  0  0  0  0  0  0
   -4.6115   10.1991   -0.0334 C   0  0  0  0  0  0  0  0  0  0  0  0
   -5.8788    9.6192    0.3236 O   0  0  0  0  0  0  0  0  0  0  0  0
   -5.6854    8.4447    1.1354 C   0  0  0  0  0  0  0  0  0  0  0  0
   -4.8336    7.3890    0.4097 C   0  0  0  0  0  0  0  0  0  0  0  0
   -0.8229   -1.9544    3.2548 H   0  0  0  0  0  0  0  0  0  0  0  0
    1.0590   -1.3733    1.7636 H   0  0  0  0  0  0  0  0  0  0  0  0
    0.9936    0.6663    0.3622 H   0  0  0  0  0  0  0  0  0  0  0  0
   -2.8387   -0.4872    3.3719 H   0  0  0  0  0  0  0  0  0  0  0  0
   -1.3979    4.0508   -0.7541 H   0  0  0  0  0  0  0  0  0  0  0  0
   -0.8497    2.5510   -1.4391 H   0  0  0  0  0  0  0  0  0  0  0  0
    2.4871    6.1705   -0.5458 H   0  0  0  0  0  0  0  0  0  0  0  0
    3.0572    4.5170   -0.4814 H   0  0  0  0  0  0  0  0  0  0  0  0
    2.3066    3.8226    2.4450 H   0  0  0  0  0  0  0  0  0  0  0  0
    3.3705    4.3662    4.6004 H   0  0  0  0  0  0  0  0  0  0  0  0
    4.8449    6.3557    4.8073 H   0  0  0  0  0  0  0  0  0  0  0  0
    4.3069    7.1872    0.6278 H   0  0  0  0  0  0  0  0  0  0  0  0
   -0.6705    5.2001    2.1727 H   0  0  0  0  0  0  0  0  0  0  0  0
   -2.7254    6.5057    2.0506 H   0  0  0  0  0  0  0  0  0  0  0  0
   -1.6177    7.9051   -1.8670 H   0  0  0  0  0  0  0  0  0  0  0  0
    0.4411    6.6162   -1.7476 H   0  0  0  0  0  0  0  0  0  0  0  0
   -4.2211    8.9302   -1.7571 H   0  0  0  0  0  0  0  0  0  0  0  0
   -2.7807    9.6968   -1.0453 H   0  0  0  0  0  0  0  0  0  0  0  0
   -4.8085   11.0854   -0.6437 H   0  0  0  0  0  0  0  0  0  0  0  0
   -4.1021   10.5273    0.8814 H   0  0  0  0  0  0  0  0  0  0  0  0
   -6.6748    8.0372    1.3658 H   0  0  0  0  0  0  0  0  0  0  0  0
   -5.2148    8.7401    2.0810 H   0  0  0  0  0  0  0  0  0  0  0  0
   -5.3598    7.0651   -0.4987 H   0  0  0  0  0  0  0  0  0  0  0  0
   -4.7162    6.5074    1.0470 H   0  0  0  0  0  0  0  0  0  0  0  0
  1  2  1  0  0  0  0
  1  6  2  0  0  0  0
  1 34  1  0  0  0  0
  2  3  2  0  0  0  0
  2 35  1  0  0  0  0
  3  4  1  0  0  0  0
  3 36  1  0  0  0  0
  4  5  2  0  0  0  0
  4  9  1  0  0  0  0
  5  6  1  0  0  0  0
  5  7  1  0  0  0  0
  6 37  1  0  0  0  0
  7  8  2  0  0  0  0
  8  9  1  0  0  0  0
  9 10  1  0  0  0  0
 10 11  1  0  0  0  0
 10 38  1  0  0  0  0
 10 39  1  0  0  0  0
 11 12  2  0  0  0  0
 11 13  1  0  0  0  0
 13 14  1  0  0  0  0
 13 22  1  0  0  0  0
 14 15  1  0  0  0  0
 14 40  1  0  0  0  0
 14 41  1  0  0  0  0
 15 16  1  0  0  0  0
 15 20  2  0  0  0  0
 16 17  2  0  0  0  0
 16 42  1  0  0  0  0
 17 18  1  0  0  0  0
 17 43  1  0  0  0  0
 18 19  2  0  0  0  0
 18 44  1  0  0  0  0
 19 20  1  0  0  0  0
 19 21  1  0  0  0  0
 20 45  1  0  0  0  0
 22 23  1  0  0  0  0
 22 27  2  0  0  0  0
 23 24  2  0  0  0  0
 23 46  1  0  0  0  0
 24 25  1  0  0  0  0
 24 47  1  0  0  0  0
 25 26  2  0  0  0  0
 25 28  1  0  0  0  0
 26 27  1  0  0  0  0
 26 48  1  0  0  0  0
 27 49  1  0  0  0  0
 28 29  1  0  0  0  0
 28 33  1  0  0  0  0
 29 30  1  0  0  0  0
 29 50  1  0  0  0  0
 29 51  1  0  0  0  0
 30 31  1  0  0  0  0
 30 52  1  0  0  0  0
 30 53  1  0  0  0  0
 31 32  1  0  0  0  0
 32 33  1  0  0  0  0
 32 54  1  0  0  0  0
 32 55  1  0  0  0  0
 33 56  1  0  0  0  0
 33 57  1  0  0  0  0
M  END
$$$$
