
 OpenBabel07202414143D

 58 63  0  0  1  0  0  0  0  0999 V2000
    0.7191   -2.1292    1.0918 C   0  0  0  0  0  0  0  0  0  0  0  0
    2.1521   -2.0195    1.1190 N   0  0  0  0  0  0  0  0  0  0  0  0
    2.7566   -0.8557    0.7091 C   0  0  0  0  0  0  0  0  0  0  0  0
    2.1467    0.1535    0.3705 O   0  0  0  0  0  0  0  0  0  0  0  0
    4.2754   -0.8928    0.6823 C   0  0  0  0  0  0  0  0  0  0  0  0
    4.8840   -0.9682    2.0422 N   0  0  3  0  0  0  0  0  0  0  0  0
    4.5490    0.1411    2.9333 C   0  0  0  0  0  0  0  0  0  0  0  0
    5.6177    1.2028    3.0628 C   0  0  0  0  0  0  0  0  0  0  0  0
    5.2275    2.4674    3.5464 C   0  0  0  0  0  0  0  0  0  0  0  0
    6.1640    3.4691    3.7844 C   0  0  0  0  0  0  0  0  0  0  0  0
    7.5066    3.2118    3.5536 C   0  0  0  0  0  0  0  0  0  0  0  0
    8.6819    4.4318    3.8514 Cl  0  0  0  0  0  0  0  0  0  0  0  0
    7.9128    1.9632    3.0834 C   0  0  0  0  0  0  0  0  0  0  0  0
    6.9812    0.9379    2.8144 C   0  0  0  0  0  0  0  0  0  0  0  0
    7.4294   -0.4199    2.2379 C   0  0  3  0  0  0  0  0  0  0  0  0
    8.6080   -1.0243    3.0624 C   0  0  0  0  0  0  0  0  0  0  0  0
    9.8849   -0.7855    2.2654 C   0  0  0  0  0  0  0  0  0  0  0  0
    9.4901   -0.0104    1.1302 N   0  0  0  0  0  0  0  0  0  0  0  0
   10.4074    0.6051    0.2350 C   0  0  0  0  0  0  0  0  0  0  0  0
   11.6720    0.0314    0.0736 C   0  0  0  0  0  0  0  0  0  0  0  0
   12.6993    0.5838   -0.6007 N   0  0  0  0  0  0  0  0  0  0  0  0
   12.4455    1.7670   -1.1934 C   0  0  0  0  0  0  0  0  0  0  0  0
   11.2102    2.4156   -1.1878 C   0  0  0  0  0  0  0  0  0  0  0  0
   11.0467    3.6192   -1.9024 C   0  0  0  0  0  0  0  0  0  0  0  0
    9.8409    4.3117   -1.8627 C   0  0  0  0  0  0  0  0  0  0  0  0
    8.8080    3.8222   -1.0773 C   0  0  0  0  0  0  0  0  0  0  0  0
    7.3420    4.7184   -0.9568 Cl  0  0  0  0  0  0  0  0  0  0  0  0
    8.9528    2.6181   -0.3765 C   0  0  0  0  0  0  0  0  0  0  0  0
   10.1521    1.8470   -0.4367 C   0  0  0  0  0  0  0  0  0  0  0  0
    8.1389   -0.2148    0.8760 C   0  0  0  0  0  0  0  0  0  0  0  0
    7.6672   -0.2112   -0.2436 O   0  0  0  0  0  0  0  0  0  0  0  0
    6.2569   -1.4436    2.2487 C   0  0  0  0  0  0  0  0  0  0  0  0
    4.8878   -0.0763   -0.4257 C   0  0  0  0  0  0  0  0  0  0  0  0
    4.9548   -1.5773   -0.4879 C   0  0  0  0  0  0  0  0  0  0  0  0
    0.4235   -3.0325    1.6271 H   0  0  0  0  0  0  0  0  0  0  0  0
    0.3860   -2.1812    0.0504 H   0  0  0  0  0  0  0  0  0  0  0  0
    0.2720   -1.2479    1.5629 H   0  0  0  0  0  0  0  0  0  0  0  0
    2.7369   -2.8076    1.3690 H   0  0  0  0  0  0  0  0  0  0  0  0
    4.3767   -0.2673    3.9380 H   0  0  0  0  0  0  0  0  0  0  0  0
    3.6030    0.6139    2.6432 H   0  0  0  0  0  0  0  0  0  0  0  0
    4.1751    2.6738    3.7512 H   0  0  0  0  0  0  0  0  0  0  0  0
    5.8412    4.4400    4.1519 H   0  0  0  0  0  0  0  0  0  0  0  0
    8.9760    1.8123    2.9191 H   0  0  0  0  0  0  0  0  0  0  0  0
    8.4910   -2.1057    3.2046 H   0  0  0  0  0  0  0  0  0  0  0  0
    8.6845   -0.5920    4.0664 H   0  0  0  0  0  0  0  0  0  0  0  0
   10.2794   -1.7451    1.9106 H   0  0  0  0  0  0  0  0  0  0  0  0
   10.6465   -0.2639    2.8505 H   0  0  0  0  0  0  0  0  0  0  0  0
   11.8968   -0.9521    0.4750 H   0  0  0  0  0  0  0  0  0  0  0  0
   13.3101    2.2115   -1.6811 H   0  0  0  0  0  0  0  0  0  0  0  0
   11.8606    4.0222   -2.5029 H   0  0  0  0  0  0  0  0  0  0  0  0
    9.7216    5.2295   -2.4336 H   0  0  0  0  0  0  0  0  0  0  0  0
    8.1077    2.2861    0.2170 H   0  0  0  0  0  0  0  0  0  0  0  0
    6.2291   -1.8732    3.2640 H   0  0  0  0  0  0  0  0  0  0  0  0
    6.4848   -2.3121    1.6225 H   0  0  0  0  0  0  0  0  0  0  0  0
    5.6910    0.5726   -0.1255 H   0  0  0  0  0  0  0  0  0  0  0  0
    4.2582    0.4016   -1.1683 H   0  0  0  0  0  0  0  0  0  0  0  0
    5.9178   -2.0558   -0.3746 H   0  0  0  0  0  0  0  0  0  0  0  0
    4.3311   -2.0844   -1.2165 H   0  0  0  0  0  0  0  0  0  0  0  0
  1  2  1  0  0  0  0
  1 35  1  0  0  0  0
  1 36  1  0  0  0  0
  1 37  1  0  0  0  0
  2  3  1  0  0  0  0
  2 38  1  0  0  0  0
  3  4  2  0  0  0  0
  3  5  1  0  0  0  0
  5  6  1  0  0  0  0
  5 33  1  0  0  0  0
  5 34  1  0  0  0  0
  6  7  1  0  0  0  0
  6 32  1  0  0  0  0
  7  8  1  0  0  0  0
  7 39  1  0  0  0  0
  7 40  1  0  0  0  0
  8  9  1  0  0  0  0
  8 14  2  0  0  0  0
  9 10  2  0  0  0  0
  9 41  1  0  0  0  0
 10 11  1  0  0  0  0
 10 42  1  0  0  0  0
 11 12  1  0  0  0  0
 11 13  2  0  0  0  0
 13 14  1  0  0  0  0
 13 43  1  0  0  0  0
 14 15  1  0  0  0  0
 15 16  1  0  0  0  0
 15 30  1  0  0  0  0
 15 32  1  0  0  0  0
 16 17  1  0  0  0  0
 16 44  1  0  0  0  0
 16 45  1  0  0  0  0
 17 18  1  0  0  0  0
 17 46  1  0  0  0  0
 17 47  1  0  0  0  0
 18 19  1  0  0  0  0
 18 30  1  0  0  0  0
 19 20  1  0  0  0  0
 19 29  2  0  0  0  0
 20 21  2  0  0  0  0
 20 48  1  0  0  0  0
 21 22  1  0  0  0  0
 22 23  2  0  0  0  0
 22 49  1  0  0  0  0
 23 24  1  0  0  0  0
 23 29  1  0  0  0  0
 24 25  2  0  0  0  0
 24 50  1  0  0  0  0
 25 26  1  0  0  0  0
 25 51  1  0  0  0  0
 26 27  1  0  0  0  0
 26 28  2  0  0  0  0
 28 29  1  0  0  0  0
 28 52  1  0  0  0  0
 30 31  2  0  0  0  0
 32 53  1  0  0  0  0
 32 54  1  0  0  0  0
 33 34  1  0  0  0  0
 33 55  1  0  0  0  0
 33 56  1  0  0  0  0
 34 57  1  0  0  0  0
 34 58  1  0  0  0  0
M  END
$$$$
