
 OpenBabel07202414143D

 60 64  0  0  1  0  0  0  0  0999 V2000
    7.0682    2.5227    0.2761 C   0  0  0  0  0  0  0  0  0  0  0  0
    6.1768    1.5947    0.9171 N   0  0  0  0  0  0  0  0  0  0  0  0
    5.7180    0.4851    0.2366 C   0  0  0  0  0  0  0  0  0  0  0  0
    6.0687    0.2151   -0.9023 O   0  0  0  0  0  0  0  0  0  0  0  0
    4.6403   -0.3096    0.9627 C   0  0  0  0  0  0  0  0  0  0  0  0
    5.0337   -0.7777    2.2832 N   0  0  0  0  0  0  0  0  0  0  0  0
    5.8094   -1.9989    2.4336 C   0  0  0  0  0  0  0  0  0  0  0  0
    5.1202   -3.0622    3.3343 C   0  0  2  0  0  0  0  0  0  0  0  0
    6.2262   -3.9843    3.9075 C   0  0  0  0  0  0  0  0  0  0  0  0
    5.8984   -5.4237    3.5174 C   0  0  1  0  0  0  0  0  0  0  0  0
    5.4755   -6.3518    4.6934 C   0  0  0  0  0  0  0  0  0  0  0  0
    4.1909   -6.0318    5.1949 O   0  0  0  0  0  0  0  0  0  0  0  0
    3.9011   -6.6222    6.4566 C   0  0  0  0  0  0  0  0  0  0  0  0
    4.9498   -5.3039    2.4187 N   0  0  0  0  0  0  0  0  0  0  0  0
    4.4471   -6.4892    1.7458 C   0  0  0  0  0  0  0  0  0  0  0  0
    3.1372   -6.5251    1.2659 C   0  0  0  0  0  0  0  0  0  0  0  0
    2.4379   -7.6604    1.0185 N   0  0  0  0  0  0  0  0  0  0  0  0
    3.0810   -8.8251    1.2263 C   0  0  0  0  0  0  0  0  0  0  0  0
    4.4381   -8.9302    1.5100 C   0  0  0  0  0  0  0  0  0  0  0  0
    5.0639  -10.1920    1.5948 C   0  0  0  0  0  0  0  0  0  0  0  0
    6.4339  -10.2992    1.8134 C   0  0  0  0  0  0  0  0  0  0  0  0
    7.1982   -9.1478    1.8909 C   0  0  0  0  0  0  0  0  0  0  0  0
    6.5787   -7.8968    1.7931 C   0  0  0  0  0  0  0  0  0  0  0  0
    5.1693   -7.7339    1.6963 C   0  0  0  0  0  0  0  0  0  0  0  0
    4.3350   -4.0191    2.4109 C   0  0  0  0  0  0  0  0  0  0  0  0
    3.4013   -3.6533    1.7120 O   0  0  0  0  0  0  0  0  0  0  0  0
    4.3400   -2.3493    4.4568 C   0  0  0  0  0  0  0  0  0  0  0  0
    3.7310   -3.0553    5.4973 C   0  0  0  0  0  0  0  0  0  0  0  0
    3.2222   -2.4345    6.6441 C   0  0  0  0  0  0  0  0  0  0  0  0
    2.6249   -3.3900    7.9423 Cl  0  0  0  0  0  0  0  0  0  0  0  0
    3.2326   -1.0554    6.7522 C   0  0  0  0  0  0  0  0  0  0  0  0
    3.7285   -0.3081    5.6904 C   0  0  0  0  0  0  0  0  0  0  0  0
    4.2746   -0.9428    4.5541 C   0  0  0  0  0  0  0  0  0  0  0  0
    4.6232   -0.0836    3.3942 C   0  0  0  0  0  0  0  0  0  0  0  0
    4.4381    1.1275    3.4010 O   0  0  0  0  0  0  0  0  0  0  0  0
    7.2809    3.3479    0.9582 H   0  0  0  0  0  0  0  0  0  0  0  0
    6.6021    2.9034   -0.6380 H   0  0  0  0  0  0  0  0  0  0  0  0
    7.9922    2.0012    0.0130 H   0  0  0  0  0  0  0  0  0  0  0  0
    5.7583    1.8130    1.8222 H   0  0  0  0  0  0  0  0  0  0  0  0
    4.3464   -1.1761    0.3625 H   0  0  0  0  0  0  0  0  0  0  0  0
    3.7586    0.3365    1.0618 H   0  0  0  0  0  0  0  0  0  0  0  0
    6.7443   -1.6704    2.9123 H   0  0  0  0  0  0  0  0  0  0  0  0
    6.0839   -2.3888    1.4460 H   0  0  0  0  0  0  0  0  0  0  0  0
    6.4067   -3.8640    4.9807 H   0  0  0  0  0  0  0  0  0  0  0  0
    7.1875   -3.7481    3.4255 H   0  0  0  0  0  0  0  0  0  0  0  0
    6.8443   -5.8172    3.1516 H   0  0  0  0  0  0  0  0  0  0  0  0
    5.4418   -7.3980    4.3778 H   0  0  0  0  0  0  0  0  0  0  0  0
    6.2248   -6.2731    5.4894 H   0  0  0  0  0  0  0  0  0  0  0  0
    2.9681   -6.1866    6.8272 H   0  0  0  0  0  0  0  0  0  0  0  0
    4.6887   -6.4007    7.1840 H   0  0  0  0  0  0  0  0  0  0  0  0
    3.7604   -7.6993    6.3506 H   0  0  0  0  0  0  0  0  0  0  0  0
    2.5451   -5.6309    1.1079 H   0  0  0  0  0  0  0  0  0  0  0  0
    2.4530   -9.7077    1.1315 H   0  0  0  0  0  0  0  0  0  0  0  0
    4.4837  -11.1044    1.4692 H   0  0  0  0  0  0  0  0  0  0  0  0
    6.9072  -11.2768    1.8758 H   0  0  0  0  0  0  0  0  0  0  0  0
    8.2774   -9.2133    2.0076 H   0  0  0  0  0  0  0  0  0  0  0  0
    7.2358   -7.0348    1.7350 H   0  0  0  0  0  0  0  0  0  0  0  0
    3.6259   -4.1174    5.4314 H   0  0  0  0  0  0  0  0  0  0  0  0
    2.8189   -0.5625    7.6286 H   0  0  0  0  0  0  0  0  0  0  0  0
    3.6671    0.7775    5.7307 H   0  0  0  0  0  0  0  0  0  0  0  0
  1  2  1  0  0  0  0
  1 36  1  0  0  0  0
  1 37  1  0  0  0  0
  1 38  1  0  0  0  0
  2  3  1  0  0  0  0
  2 39  1  0  0  0  0
  3  4  2  0  0  0  0
  3  5  1  0  0  0  0
  5  6  1  0  0  0  0
  5 40  1  0  0  0  0
  5 41  1  0  0  0  0
  6  7  1  0  0  0  0
  6 34  1  0  0  0  0
  7  8  1  0  0  0  0
  7 42  1  0  0  0  0
  7 43  1  0  0  0  0
  8  9  1  0  0  0  0
  8 25  1  6  0  0  0
  8 27  1  0  0  0  0
  9 10  1  0  0  0  0
  9 44  1  0  0  0  0
  9 45  1  0  0  0  0
 10 14  1  0  0  0  0
 10 11  1  0  0  0  0
 10 46  1  6  0  0  0
 11 12  1  0  0  0  0
 11 47  1  0  0  0  0
 11 48  1  0  0  0  0
 12 13  1  0  0  0  0
 13 49  1  0  0  0  0
 13 50  1  0  0  0  0
 13 51  1  0  0  0  0
 14 15  1  0  0  0  0
 14 25  1  0  0  0  0
 15 16  1  0  0  0  0
 15 24  2  0  0  0  0
 16 17  2  0  0  0  0
 16 52  1  0  0  0  0
 17 18  1  0  0  0  0
 18 19  2  0  0  0  0
 18 53  1  0  0  0  0
 19 20  1  0  0  0  0
 19 24  1  0  0  0  0
 20 21  2  0  0  0  0
 20 54  1  0  0  0  0
 21 22  1  0  0  0  0
 21 55  1  0  0  0  0
 22 23  2  0  0  0  0
 22 56  1  0  0  0  0
 23 24  1  0  0  0  0
 23 57  1  0  0  0  0
 25 26  2  0  0  0  0
 27 28  1  0  0  0  0
 27 33  2  0  0  0  0
 28 29  2  0  0  0  0
 28 58  1  0  0  0  0
 29 30  1  0  0  0  0
 29 31  1  0  0  0  0
 31 32  2  0  0  0  0
 31 59  1  0  0  0  0
 32 33  1  0  0  0  0
 32 60  1  0  0  0  0
 33 34  1  0  0  0  0
 34 35  2  0  0  0  0
M  END
$$$$
