
 OpenBabel07202414173D

 40 43  0  0  1  0  0  0  0  0999 V2000
    1.1449    0.0426   -0.1868 Cl  0  0  0  0  0  0  0  0  0  0  0  0
    2.8588   -0.0933   -0.0193 C   0  0  0  0  0  0  0  0  0  0  0  0
    3.6136    1.0827   -0.0465 C   0  0  0  0  0  0  0  0  0  0  0  0
    5.0071    1.0553    0.1207 C   0  0  0  0  0  0  0  0  0  0  0  0
    5.6501   -0.1832    0.2742 C   0  0  0  0  0  0  0  0  0  0  0  0
    4.8886   -1.3660    0.2683 C   0  0  0  0  0  0  0  0  0  0  0  0
    3.4997   -1.3225    0.1287 C   0  0  0  0  0  0  0  0  0  0  0  0
    2.6481   -2.8255    0.1354 Cl  0  0  0  0  0  0  0  0  0  0  0  0
    7.1553   -0.2508    0.4746 C   0  0  3  0  0  0  0  0  0  0  0  0
    7.5094   -0.5499    1.9469 C   0  0  0  0  0  0  0  0  0  0  0  0
    7.7534    0.3399    2.7543 O   0  0  0  0  0  0  0  0  0  0  0  0
    7.5096   -1.9085    2.2297 N   0  0  0  0  0  0  0  0  0  0  0  0
    7.8203   -2.5451    3.4589 C   0  0  0  0  0  0  0  0  0  0  0  0
    8.1684   -1.8358    4.6083 C   0  0  0  0  0  0  0  0  0  0  0  0
    8.6318   -2.4035    5.7428 N   0  0  0  0  0  0  0  0  0  0  0  0
    8.6991   -3.7461    5.7681 C   0  0  0  0  0  0  0  0  0  0  0  0
    8.2669   -4.5734    4.7362 C   0  0  0  0  0  0  0  0  0  0  0  0
    8.2617   -5.9738    4.8927 C   0  0  0  0  0  0  0  0  0  0  0  0
    7.7932   -6.7998    3.8745 C   0  0  0  0  0  0  0  0  0  0  0  0
    7.3569   -6.2418    2.6825 C   0  0  0  0  0  0  0  0  0  0  0  0
    7.3752   -4.8535    2.5133 C   0  0  0  0  0  0  0  0  0  0  0  0
    7.8174   -3.9715    3.5382 C   0  0  0  0  0  0  0  0  0  0  0  0
    7.8432    1.0326   -0.0068 C   0  0  0  0  0  0  0  0  0  0  0  0
    7.0909    2.2688    0.4608 C   0  0  0  0  0  0  0  0  0  0  0  0
    5.7249    2.2455   -0.0429 N   0  0  0  0  0  0  0  0  0  0  0  0
    3.1116    2.0346   -0.2020 H   0  0  0  0  0  0  0  0  0  0  0  0
    5.3732   -2.3332    0.3669 H   0  0  0  0  0  0  0  0  0  0  0  0
    7.5568   -1.0672   -0.1415 H   0  0  0  0  0  0  0  0  0  0  0  0
    7.3708   -2.5231    1.4432 H   0  0  0  0  0  0  0  0  0  0  0  0
    8.0888   -0.7551    4.6736 H   0  0  0  0  0  0  0  0  0  0  0  0
    9.1231   -4.1553    6.6833 H   0  0  0  0  0  0  0  0  0  0  0  0
    8.5958   -6.4252    5.8233 H   0  0  0  0  0  0  0  0  0  0  0  0
    7.7541   -7.8770    4.0217 H   0  0  0  0  0  0  0  0  0  0  0  0
    6.9869   -6.8810    1.8869 H   0  0  0  0  0  0  0  0  0  0  0  0
    6.9991   -4.4753    1.5682 H   0  0  0  0  0  0  0  0  0  0  0  0
    7.8702    1.0292   -1.1054 H   0  0  0  0  0  0  0  0  0  0  0  0
    8.8836    1.0725    0.3364 H   0  0  0  0  0  0  0  0  0  0  0  0
    7.5883    3.1622    0.0663 H   0  0  0  0  0  0  0  0  0  0  0  0
    7.0846    2.3676    1.5504 H   0  0  0  0  0  0  0  0  0  0  0  0
    5.1924    3.0735    0.2157 H   0  0  0  0  0  0  0  0  0  0  0  0
  1  2  1  0  0  0  0
  2  3  1  0  0  0  0
  2  7  2  0  0  0  0
  3  4  2  0  0  0  0
  3 26  1  0  0  0  0
  4  5  1  0  0  0  0
  4 25  1  0  0  0  0
  5  6  2  0  0  0  0
  5  9  1  0  0  0  0
  6  7  1  0  0  0  0
  6 27  1  0  0  0  0
  7  8  1  0  0  0  0
  9 10  1  0  0  0  0
  9 23  1  0  0  0  0
  9 28  1  0  0  0  0
 10 11  2  0  0  0  0
 10 12  1  0  0  0  0
 12 13  1  0  0  0  0
 12 29  1  0  0  0  0
 13 14  1  0  0  0  0
 13 22  2  0  0  0  0
 14 15  2  0  0  0  0
 14 30  1  0  0  0  0
 15 16  1  0  0  0  0
 16 17  2  0  0  0  0
 16 31  1  0  0  0  0
 17 18  1  0  0  0  0
 17 22  1  0  0  0  0
 18 19  2  0  0  0  0
 18 32  1  0  0  0  0
 19 20  1  0  0  0  0
 19 33  1  0  0  0  0
 20 21  2  0  0  0  0
 20 34  1  0  0  0  0
 21 22  1  0  0  0  0
 21 35  1  0  0  0  0
 23 24  1  0  0  0  0
 23 36  1  0  0  0  0
 23 37  1  0  0  0  0
 24 25  1  0  0  0  0
 24 38  1  0  0  0  0
 24 39  1  0  0  0  0
 25 40  1  0  0  0  0
M  END
$$$$
