
 OpenBabel07202414193D

 44 47  0  0  1  0  0  0  0  0999 V2000
    2.3258    1.1741   -3.2194 N   0  0  0  0  0  0  0  0  0  0  0  0
    2.0711    0.3485   -2.0308 C   0  0  0  0  0  0  0  0  0  0  0  0
    2.9968    0.6448   -0.8063 C   0  0  1  0  0  0  0  0  0  0  0  0
    2.5149   -0.3038    0.3398 C   0  0  0  0  0  0  0  0  0  0  0  0
    2.9541   -1.4526    0.4129 O   0  0  0  0  0  0  0  0  0  0  0  0
    1.5167    0.1820    1.1643 N   0  0  0  0  0  0  0  0  0  0  0  0
    0.9055   -0.4658    2.2786 C   0  0  0  0  0  0  0  0  0  0  0  0
    1.2551   -1.7478    2.7035 C   0  0  0  0  0  0  0  0  0  0  0  0
    0.8168   -2.3225    3.8473 N   0  0  0  0  0  0  0  0  0  0  0  0
   -0.0692   -1.6207    4.5785 C   0  0  0  0  0  0  0  0  0  0  0  0
   -0.6020   -0.3922    4.1902 C   0  0  0  0  0  0  0  0  0  0  0  0
   -1.6475    0.1988    4.9306 C   0  0  0  0  0  0  0  0  0  0  0  0
   -2.2143    1.3963    4.5215 C   0  0  0  0  0  0  0  0  0  0  0  0
   -1.7148    2.0487    3.3945 C   0  0  0  0  0  0  0  0  0  0  0  0
   -0.6657    1.4732    2.6673 C   0  0  0  0  0  0  0  0  0  0  0  0
   -0.0971    0.2222    3.0219 C   0  0  0  0  0  0  0  0  0  0  0  0
    4.4460    0.2312   -1.1756 C   0  0  0  0  0  0  0  0  0  0  0  0
    5.3931    0.6928   -0.0825 C   0  0  0  0  0  0  0  0  0  0  0  0
    5.4369    2.1160   -0.0001 O   0  0  0  0  0  0  0  0  0  0  0  0
    4.2296    2.7538   -0.0765 C   0  0  0  0  0  0  0  0  0  0  0  0
    4.2855    4.1331    0.1537 C   0  0  0  0  0  0  0  0  0  0  0  0
    3.1341    4.9140    0.0744 C   0  0  0  0  0  0  0  0  0  0  0  0
    1.9234    4.3096   -0.2347 C   0  0  0  0  0  0  0  0  0  0  0  0
    0.4887    5.2549   -0.3237 Cl  0  0  0  0  0  0  0  0  0  0  0  0
    1.8631    2.9376   -0.4877 C   0  0  0  0  0  0  0  0  0  0  0  0
    3.0208    2.1316   -0.4236 C   0  0  0  0  0  0  0  0  0  0  0  0
    1.7667    0.8364   -4.0022 H   0  0  0  0  0  0  0  0  0  0  0  0
    3.2974    1.0927   -3.5178 H   0  0  0  0  0  0  0  0  0  0  0  0
    2.1645   -0.7065   -2.3173 H   0  0  0  0  0  0  0  0  0  0  0  0
    1.0195    0.4874   -1.7531 H   0  0  0  0  0  0  0  0  0  0  0  0
    1.3016    1.1625    1.0766 H   0  0  0  0  0  0  0  0  0  0  0  0
    1.9221   -2.3913    2.1413 H   0  0  0  0  0  0  0  0  0  0  0  0
   -0.3592   -2.0962    5.5123 H   0  0  0  0  0  0  0  0  0  0  0  0
   -2.0506   -0.2966    5.8130 H   0  0  0  0  0  0  0  0  0  0  0  0
   -3.0551    1.8231    5.0617 H   0  0  0  0  0  0  0  0  0  0  0  0
   -2.1495    2.9877    3.0718 H   0  0  0  0  0  0  0  0  0  0  0  0
   -0.3363    2.0186    1.7892 H   0  0  0  0  0  0  0  0  0  0  0  0
    4.7605    0.7041   -2.1134 H   0  0  0  0  0  0  0  0  0  0  0  0
    4.5368   -0.8515   -1.3205 H   0  0  0  0  0  0  0  0  0  0  0  0
    6.4078    0.3557   -0.3196 H   0  0  0  0  0  0  0  0  0  0  0  0
    5.1404    0.2832    0.9018 H   0  0  0  0  0  0  0  0  0  0  0  0
    5.2409    4.6024    0.3770 H   0  0  0  0  0  0  0  0  0  0  0  0
    3.1941    5.9858    0.2403 H   0  0  0  0  0  0  0  0  0  0  0  0
    0.9036    2.5122   -0.7737 H   0  0  0  0  0  0  0  0  0  0  0  0
  1  2  1  0  0  0  0
  1 27  1  0  0  0  0
  1 28  1  0  0  0  0
  2 29  1  0  0  0  0
  2 30  1  0  0  0  0
  3 17  1  0  0  0  0
  3 26  1  0  0  0  0
  3  4  1  1  0  0  0
  3  2  1  0  0  0  0
  4  5  2  0  0  0  0
  4  6  1  0  0  0  0
  6  7  1  0  0  0  0
  6 31  1  0  0  0  0
  7  8  1  0  0  0  0
  7 16  2  0  0  0  0
  8  9  2  0  0  0  0
  8 32  1  0  0  0  0
  9 10  1  0  0  0  0
 10 11  2  0  0  0  0
 10 33  1  0  0  0  0
 11 12  1  0  0  0  0
 11 16  1  0  0  0  0
 12 13  2  0  0  0  0
 12 34  1  0  0  0  0
 13 14  1  0  0  0  0
 13 35  1  0  0  0  0
 14 15  2  0  0  0  0
 14 36  1  0  0  0  0
 15 16  1  0  0  0  0
 15 37  1  0  0  0  0
 17 18  1  0  0  0  0
 17 38  1  0  0  0  0
 17 39  1  0  0  0  0
 18 19  1  0  0  0  0
 18 40  1  0  0  0  0
 18 41  1  0  0  0  0
 19 20  1  0  0  0  0
 20 21  1  0  0  0  0
 20 26  2  0  0  0  0
 21 22  2  0  0  0  0
 21 42  1  0  0  0  0
 22 23  1  0  0  0  0
 22 43  1  0  0  0  0
 23 24  1  0  0  0  0
 23 25  2  0  0  0  0
 25 26  1  0  0  0  0
 25 44  1  0  0  0  0
M  END
$$$$
