
 OpenBabel07202414143D

 49 52  0  0  1  0  0  0  0  0999 V2000
    3.5444   -2.5477   -3.5657 C   0  0  0  0  0  0  0  0  0  0  0  0
    3.6239   -1.2002   -3.0556 N   0  0  0  0  0  0  0  0  0  0  0  0
    4.1917   -0.1904   -3.7942 C   0  0  0  0  0  0  0  0  0  0  0  0
    4.5808   -0.3367   -4.9453 O   0  0  0  0  0  0  0  0  0  0  0  0
    4.2095    1.1771   -3.1234 C   0  0  0  0  0  0  0  0  0  0  0  0
    5.1774    1.3943   -1.9221 C   0  0  1  0  0  0  0  0  0  0  0  0
    4.7769    0.4824   -0.7188 C   0  0  0  0  0  0  0  0  0  0  0  0
    5.2137   -0.6655   -0.6253 O   0  0  0  0  0  0  0  0  0  0  0  0
    3.8490    0.9989    0.1851 N   0  0  0  0  0  0  0  0  0  0  0  0
    3.3418    0.3385    1.3391 C   0  0  0  0  0  0  0  0  0  0  0  0
    3.4089   -1.0436    1.5269 C   0  0  0  0  0  0  0  0  0  0  0  0
    3.2221   -1.6608    2.7183 N   0  0  0  0  0  0  0  0  0  0  0  0
    2.7986   -0.8744    3.7313 C   0  0  0  0  0  0  0  0  0  0  0  0
    2.3782    0.4331    3.5803 C   0  0  0  0  0  0  0  0  0  0  0  0
    1.6021    1.0823    4.5639 C   0  0  0  0  0  0  0  0  0  0  0  0
    1.1835    2.3927    4.3817 C   0  0  0  0  0  0  0  0  0  0  0  0
    1.6254    3.1048    3.2736 C   0  0  0  0  0  0  0  0  0  0  0  0
    2.4066    2.4693    2.3006 C   0  0  0  0  0  0  0  0  0  0  0  0
    2.7250    1.0913    2.3798 C   0  0  0  0  0  0  0  0  0  0  0  0
    6.6023    0.9906   -2.3797 C   0  0  0  0  0  0  0  0  0  0  0  0
    7.6186    1.4553   -1.3474 C   0  0  0  0  0  0  0  0  0  0  0  0
    7.6735    2.8762   -1.2717 O   0  0  0  0  0  0  0  0  0  0  0  0
    6.4710    3.5202   -1.2920 C   0  0  0  0  0  0  0  0  0  0  0  0
    6.5619    4.8994   -1.0809 C   0  0  0  0  0  0  0  0  0  0  0  0
    5.4131    5.7008   -1.1303 C   0  0  0  0  0  0  0  0  0  0  0  0
    4.1897    5.1088   -1.3775 C   0  0  0  0  0  0  0  0  0  0  0  0
    2.7772    6.0822   -1.4747 Cl  0  0  0  0  0  0  0  0  0  0  0  0
    4.0912    3.7229   -1.5921 C   0  0  0  0  0  0  0  0  0  0  0  0
    5.2380    2.8983   -1.5728 C   0  0  0  0  0  0  0  0  0  0  0  0
    2.7535   -3.0696   -3.0216 H   0  0  0  0  0  0  0  0  0  0  0  0
    4.5005   -3.0525   -3.4000 H   0  0  0  0  0  0  0  0  0  0  0  0
    3.3161   -2.5380   -4.6342 H   0  0  0  0  0  0  0  0  0  0  0  0
    3.3655   -1.0570   -2.0905 H   0  0  0  0  0  0  0  0  0  0  0  0
    3.1738    1.4154   -2.8664 H   0  0  0  0  0  0  0  0  0  0  0  0
    4.4957    1.8813   -3.9214 H   0  0  0  0  0  0  0  0  0  0  0  0
    3.8238    2.0030    0.2319 H   0  0  0  0  0  0  0  0  0  0  0  0
    3.6322   -1.7299    0.7138 H   0  0  0  0  0  0  0  0  0  0  0  0
    2.8503   -1.3530    4.7165 H   0  0  0  0  0  0  0  0  0  0  0  0
    1.2644    0.5397    5.4481 H   0  0  0  0  0  0  0  0  0  0  0  0
    0.5112    2.8661    5.0952 H   0  0  0  0  0  0  0  0  0  0  0  0
    1.3481    4.1446    3.1442 H   0  0  0  0  0  0  0  0  0  0  0  0
    2.7155    3.0763    1.4577 H   0  0  0  0  0  0  0  0  0  0  0  0
    6.8340    1.4748   -3.3394 H   0  0  0  0  0  0  0  0  0  0  0  0
    6.6975   -0.0908   -2.5313 H   0  0  0  0  0  0  0  0  0  0  0  0
    8.6162    1.1105   -1.6396 H   0  0  0  0  0  0  0  0  0  0  0  0
    7.4210    1.0569   -0.3457 H   0  0  0  0  0  0  0  0  0  0  0  0
    7.5260    5.3583   -0.9068 H   0  0  0  0  0  0  0  0  0  0  0  0
    5.5017    6.7703   -0.9861 H   0  0  0  0  0  0  0  0  0  0  0  0
    3.1063    3.3156   -1.8052 H   0  0  0  0  0  0  0  0  0  0  0  0
  1  2  1  0  0  0  0
  1 30  1  0  0  0  0
  1 31  1  0  0  0  0
  1 32  1  0  0  0  0
  2  3  1  0  0  0  0
  2 33  1  0  0  0  0
  3  4  2  0  0  0  0
  3  5  1  0  0  0  0
  5 34  1  0  0  0  0
  5 35  1  0  0  0  0
  6 20  1  0  0  0  0
  6 29  1  0  0  0  0
  6  7  1  1  0  0  0
  6  5  1  0  0  0  0
  7  8  2  0  0  0  0
  7  9  1  0  0  0  0
  9 10  1  0  0  0  0
  9 36  1  0  0  0  0
 10 11  1  0  0  0  0
 10 19  2  0  0  0  0
 11 12  2  0  0  0  0
 11 37  1  0  0  0  0
 12 13  1  0  0  0  0
 13 14  2  0  0  0  0
 13 38  1  0  0  0  0
 14 15  1  0  0  0  0
 14 19  1  0  0  0  0
 15 16  2  0  0  0  0
 15 39  1  0  0  0  0
 16 17  1  0  0  0  0
 16 40  1  0  0  0  0
 17 18  2  0  0  0  0
 17 41  1  0  0  0  0
 18 19  1  0  0  0  0
 18 42  1  0  0  0  0
 20 21  1  0  0  0  0
 20 43  1  0  0  0  0
 20 44  1  0  0  0  0
 21 22  1  0  0  0  0
 21 45  1  0  0  0  0
 21 46  1  0  0  0  0
 22 23  1  0  0  0  0
 23 24  1  0  0  0  0
 23 29  2  0  0  0  0
 24 25  2  0  0  0  0
 24 47  1  0  0  0  0
 25 26  1  0  0  0  0
 25 48  1  0  0  0  0
 26 27  1  0  0  0  0
 26 28  2  0  0  0  0
 28 29  1  0  0  0  0
 28 49  1  0  0  0  0
M  END
$$$$
