
 OpenBabel07202414133D

 42 44  0  0  1  0  0  0  0  0999 V2000
    1.0158    0.2534    0.1755 C   0  0  0  0  0  0  0  0  0  0  0  0
    2.4912    0.2422    0.0973 N   0  0  0  0  0  0  0  0  0  0  0  0
    2.9765    1.1532    1.1559 C   0  0  0  0  0  0  0  0  0  0  0  0
    3.0209   -1.1422    0.3414 C   0  0  3  0  0  0  0  0  0  0  0  0
    2.4729   -2.1857   -0.6780 C   0  0  0  0  0  0  0  0  0  0  0  0
    2.3085   -3.3527   -0.3227 O   0  0  0  0  0  0  0  0  0  0  0  0
    2.2745   -1.7135   -1.9697 N   0  0  0  0  0  0  0  0  0  0  0  0
    1.7285   -2.4496   -3.0581 C   0  0  0  0  0  0  0  0  0  0  0  0
    1.0573   -3.6621   -2.8602 C   0  0  0  0  0  0  0  0  0  0  0  0
    0.5169   -4.4236   -3.8391 N   0  0  0  0  0  0  0  0  0  0  0  0
    0.6563   -3.9671   -5.0981 C   0  0  0  0  0  0  0  0  0  0  0  0
    1.2866   -2.7726   -5.4367 C   0  0  0  0  0  0  0  0  0  0  0  0
    1.3861   -2.3858   -6.7856 C   0  0  0  0  0  0  0  0  0  0  0  0
    2.0117   -1.1949   -7.1368 C   0  0  0  0  0  0  0  0  0  0  0  0
    2.5356   -0.3789   -6.1418 C   0  0  0  0  0  0  0  0  0  0  0  0
    2.4482   -0.7578   -4.7965 C   0  0  0  0  0  0  0  0  0  0  0  0
    1.8268   -1.9703   -4.3982 C   0  0  0  0  0  0  0  0  0  0  0  0
    4.5512   -1.2140    0.3520 C   0  0  0  0  0  0  0  0  0  0  0  0
    5.2187   -1.7998    1.4399 C   0  0  0  0  0  0  0  0  0  0  0  0
    6.6144   -1.8818    1.4603 C   0  0  0  0  0  0  0  0  0  0  0  0
    7.3654   -1.3828    0.3932 C   0  0  0  0  0  0  0  0  0  0  0  0
    9.0847   -1.5275    0.4805 Cl  0  0  0  0  0  0  0  0  0  0  0  0
    6.7159   -0.7913   -0.6937 C   0  0  0  0  0  0  0  0  0  0  0  0
    7.5734   -0.1344   -2.0426 Cl  0  0  0  0  0  0  0  0  0  0  0  0
    5.3185   -0.7090   -0.7122 C   0  0  0  0  0  0  0  0  0  0  0  0
    0.6384    1.2781    0.0773 H   0  0  0  0  0  0  0  0  0  0  0  0
    0.6478   -0.1556    1.1241 H   0  0  0  0  0  0  0  0  0  0  0  0
    0.5573   -0.3099   -0.6415 H   0  0  0  0  0  0  0  0  0  0  0  0
    2.6078    2.1701    0.9801 H   0  0  0  0  0  0  0  0  0  0  0  0
    4.0680    1.2296    1.1669 H   0  0  0  0  0  0  0  0  0  0  0  0
    2.6453    0.8375    2.1535 H   0  0  0  0  0  0  0  0  0  0  0  0
    2.6492   -1.4734    1.3222 H   0  0  0  0  0  0  0  0  0  0  0  0
    2.5676   -0.7569   -2.1291 H   0  0  0  0  0  0  0  0  0  0  0  0
    0.8893   -4.0770   -1.8725 H   0  0  0  0  0  0  0  0  0  0  0  0
    0.2245   -4.6161   -5.8558 H   0  0  0  0  0  0  0  0  0  0  0  0
    0.9782   -3.0176   -7.5716 H   0  0  0  0  0  0  0  0  0  0  0  0
    2.0898   -0.9093   -8.1827 H   0  0  0  0  0  0  0  0  0  0  0  0
    3.0243    0.5542   -6.4153 H   0  0  0  0  0  0  0  0  0  0  0  0
    2.8838   -0.0843   -4.0646 H   0  0  0  0  0  0  0  0  0  0  0  0
    4.6576   -2.2021    2.2824 H   0  0  0  0  0  0  0  0  0  0  0  0
    7.1107   -2.3414    2.3124 H   0  0  0  0  0  0  0  0  0  0  0  0
    4.8270   -0.2357   -1.5583 H   0  0  0  0  0  0  0  0  0  0  0  0
  1  2  1  0  0  0  0
  1 26  1  0  0  0  0
  1 27  1  0  0  0  0
  1 28  1  0  0  0  0
  2  3  1  0  0  0  0
  2  4  1  0  0  0  0
  3 29  1  0  0  0  0
  3 30  1  0  0  0  0
  3 31  1  0  0  0  0
  4  5  1  0  0  0  0
  4 18  1  0  0  0  0
  4 32  1  0  0  0  0
  5  6  2  0  0  0  0
  5  7  1  0  0  0  0
  7  8  1  0  0  0  0
  7 33  1  0  0  0  0
  8  9  1  0  0  0  0
  8 17  2  0  0  0  0
  9 10  2  0  0  0  0
  9 34  1  0  0  0  0
 10 11  1  0  0  0  0
 11 12  2  0  0  0  0
 11 35  1  0  0  0  0
 12 13  1  0  0  0  0
 12 17  1  0  0  0  0
 13 14  2  0  0  0  0
 13 36  1  0  0  0  0
 14 15  1  0  0  0  0
 14 37  1  0  0  0  0
 15 16  2  0  0  0  0
 15 38  1  0  0  0  0
 16 17  1  0  0  0  0
 16 39  1  0  0  0  0
 18 19  1  0  0  0  0
 18 25  2  0  0  0  0
 19 20  2  0  0  0  0
 19 40  1  0  0  0  0
 20 21  1  0  0  0  0
 20 41  1  0  0  0  0
 21 22  1  0  0  0  0
 21 23  2  0  0  0  0
 23 24  1  0  0  0  0
 23 25  1  0  0  0  0
 25 42  1  0  0  0  0
M  END
$$$$
