
 OpenBabel07202414123D

 62 65  0  0  1  0  0  0  0  0999 V2000
    4.3203    3.3558   -2.7376 C   0  0  0  0  0  0  0  0  0  0  0  0
    4.2943    1.9942   -2.0212 C   0  0  0  0  0  0  0  0  0  0  0  0
    3.0069    1.2512   -2.4188 C   0  0  0  0  0  0  0  0  0  0  0  0
    5.5191    1.1753   -2.4659 C   0  0  0  0  0  0  0  0  0  0  0  0
    4.3353    2.1805   -0.5346 C   0  0  0  0  0  0  0  0  0  0  0  0
    4.5135    3.2492    0.3105 C   0  0  0  0  0  0  0  0  0  0  0  0
    4.5266    2.7059    1.6263 C   0  0  0  0  0  0  0  0  0  0  0  0
    4.7253    3.4012    2.8545 N   0  0  0  0  0  0  0  0  0  0  0  0
    4.6791    4.8899    2.9279 C   0  0  3  0  0  0  0  0  0  0  0  0
    6.1097    5.3874    2.5648 C   0  0  0  0  0  0  0  0  0  0  0  0
    6.7046    5.0303    1.5499 O   0  0  0  0  0  0  0  0  0  0  0  0
    6.6325    6.3326    3.4262 N   0  0  0  0  0  0  0  0  0  0  0  0
    7.9772    6.8622    3.2590 C   0  0  0  0  0  0  0  0  0  0  0  0
    7.9717    8.3835    3.3840 C   0  0  0  0  0  0  0  0  0  0  0  0
    9.3364    8.9884    3.1904 C   0  0  0  0  0  0  0  0  0  0  0  0
    9.7830    9.3400    1.9090 C   0  0  0  0  0  0  0  0  0  0  0  0
   11.0459    9.9070    1.7231 C   0  0  0  0  0  0  0  0  0  0  0  0
   11.8772   10.1260    2.8198 C   0  0  0  0  0  0  0  0  0  0  0  0
   11.4391    9.7698    4.0890 C   0  0  0  0  0  0  0  0  0  0  0  0
   12.2385    9.9785    5.1434 F   0  0  0  0  0  0  0  0  0  0  0  0
   10.1844    9.2024    4.2863 C   0  0  0  0  0  0  0  0  0  0  0  0
    3.6094    5.6003    2.0832 C   0  0  0  0  0  0  0  0  0  0  0  0
    2.3526    5.0394    1.8153 C   0  0  0  0  0  0  0  0  0  0  0  0
    1.4985    5.6499    0.8962 C   0  0  0  0  0  0  0  0  0  0  0  0
    1.8854    6.8514    0.3316 C   0  0  0  0  0  0  0  0  0  0  0  0
    3.0215    7.4929    0.6639 N   0  0  0  0  0  0  0  0  0  0  0  0
    3.8461    6.8636    1.5321 C   0  0  0  0  0  0  0  0  0  0  0  0
    5.2124    2.6023    3.9317 C   0  0  0  0  0  0  0  0  0  0  0  0
    5.3131    1.3755    3.8800 O   0  0  0  0  0  0  0  0  0  0  0  0
    5.6863    3.2077    5.1910 C   0  0  0  0  0  0  0  0  0  0  0  0
    6.1998    2.4443    6.2229 C   0  0  0  0  0  0  0  0  0  0  0  0
    6.5627    3.2656    7.2397 O   0  0  0  0  0  0  0  0  0  0  0  0
    6.2548    4.5051    6.7777 C   0  0  0  0  0  0  0  0  0  0  0  0
    5.7393    4.5479    5.5643 N   0  0  0  0  0  0  0  0  0  0  0  0
    4.2878    1.3881    1.5443 N   0  0  0  0  0  0  0  0  0  0  0  0
    4.1981    1.0618    0.2187 O   0  0  0  0  0  0  0  0  0  0  0  0
    4.2771    3.2326   -3.8252 H   0  0  0  0  0  0  0  0  0  0  0  0
    5.2356    3.9133   -2.5042 H   0  0  0  0  0  0  0  0  0  0  0  0
    3.4705    3.9809   -2.4381 H   0  0  0  0  0  0  0  0  0  0  0  0
    2.9625    1.0881   -3.5014 H   0  0  0  0  0  0  0  0  0  0  0  0
    2.1155    1.8195   -2.1277 H   0  0  0  0  0  0  0  0  0  0  0  0
    2.9398    0.2692   -1.9355 H   0  0  0  0  0  0  0  0  0  0  0  0
    5.4942    0.9788   -3.5436 H   0  0  0  0  0  0  0  0  0  0  0  0
    5.5663    0.2069   -1.9534 H   0  0  0  0  0  0  0  0  0  0  0  0
    6.4532    1.7055   -2.2439 H   0  0  0  0  0  0  0  0  0  0  0  0
    4.6653    4.2705   -0.0022 H   0  0  0  0  0  0  0  0  0  0  0  0
    4.4196    5.1839    3.9450 H   0  0  0  0  0  0  0  0  0  0  0  0
    6.2064    6.4124    4.3448 H   0  0  0  0  0  0  0  0  0  0  0  0
    8.3933    6.5552    2.2933 H   0  0  0  0  0  0  0  0  0  0  0  0
    8.5979    6.4081    4.0400 H   0  0  0  0  0  0  0  0  0  0  0  0
    7.5741    8.6756    4.3649 H   0  0  0  0  0  0  0  0  0  0  0  0
    7.2776    8.8141    2.6497 H   0  0  0  0  0  0  0  0  0  0  0  0
    9.1433    9.1782    1.0417 H   0  0  0  0  0  0  0  0  0  0  0  0
   11.3776   10.1815    0.7248 H   0  0  0  0  0  0  0  0  0  0  0  0
   12.8602   10.5677    2.6927 H   0  0  0  0  0  0  0  0  0  0  0  0
    9.8803    8.9406    5.2951 H   0  0  0  0  0  0  0  0  0  0  0  0
    2.0542    4.0903    2.2559 H   0  0  0  0  0  0  0  0  0  0  0  0
    0.5646    5.1819    0.6038 H   0  0  0  0  0  0  0  0  0  0  0  0
    1.2797    7.3423   -0.4250 H   0  0  0  0  0  0  0  0  0  0  0  0
    4.7458    7.4347    1.7479 H   0  0  0  0  0  0  0  0  0  0  0  0
    6.3657    1.3903    6.3627 H   0  0  0  0  0  0  0  0  0  0  0  0
    6.4668    5.3270    7.4483 H   0  0  0  0  0  0  0  0  0  0  0  0
  1  2  1  0  0  0  0
  1 37  1  0  0  0  0
  1 38  1  0  0  0  0
  1 39  1  0  0  0  0
  2  3  1  0  0  0  0
  2  4  1  0  0  0  0
  2  5  1  0  0  0  0
  3 40  1  0  0  0  0
  3 41  1  0  0  0  0
  3 42  1  0  0  0  0
  4 43  1  0  0  0  0
  4 44  1  0  0  0  0
  4 45  1  0  0  0  0
  5  6  2  0  0  0  0
  5 36  1  0  0  0  0
  6  7  1  0  0  0  0
  6 46  1  0  0  0  0
  7  8  1  0  0  0  0
  7 35  2  0  0  0  0
  8  9  1  0  0  0  0
  8 28  1  0  0  0  0
  9 10  1  0  0  0  0
  9 22  1  0  0  0  0
  9 47  1  0  0  0  0
 10 11  2  0  0  0  0
 10 12  1  0  0  0  0
 12 13  1  0  0  0  0
 12 48  1  0  0  0  0
 13 14  1  0  0  0  0
 13 49  1  0  0  0  0
 13 50  1  0  0  0  0
 14 15  1  0  0  0  0
 14 51  1  0  0  0  0
 14 52  1  0  0  0  0
 15 16  1  0  0  0  0
 15 21  2  0  0  0  0
 16 17  2  0  0  0  0
 16 53  1  0  0  0  0
 17 18  1  0  0  0  0
 17 54  1  0  0  0  0
 18 19  2  0  0  0  0
 18 55  1  0  0  0  0
 19 20  1  0  0  0  0
 19 21  1  0  0  0  0
 21 56  1  0  0  0  0
 22 23  1  0  0  0  0
 22 27  2  0  0  0  0
 23 24  2  0  0  0  0
 23 57  1  0  0  0  0
 24 25  1  0  0  0  0
 24 58  1  0  0  0  0
 25 26  2  0  0  0  0
 25 59  1  0  0  0  0
 26 27  1  0  0  0  0
 27 60  1  0  0  0  0
 28 29  2  0  0  0  0
 28 30  1  0  0  0  0
 30 31  2  0  0  0  0
 30 34  1  0  0  0  0
 31 32  1  0  0  0  0
 31 61  1  0  0  0  0
 32 33  1  0  0  0  0
 33 34  2  0  0  0  0
 33 62  1  0  0  0  0
 35 36  1  0  0  0  0
M  END
$$$$
