
 OpenBabel07202414153D

 69 73  0  0  1  0  0  0  0  0999 V2000
    6.1640   -5.2330    8.9860 C   0  0  0  0  0  0  0  0  0  0  0  0
    6.7857   -6.2272    8.1732 O   0  0  0  0  0  0  0  0  0  0  0  0
    6.3761   -6.2823    6.8661 C   0  0  0  0  0  0  0  0  0  0  0  0
    5.0450   -6.0684    6.4917 C   0  0  0  0  0  0  0  0  0  0  0  0
    4.6565   -6.1186    5.1448 C   0  0  0  0  0  0  0  0  0  0  0  0
    5.5872   -6.3856    4.1299 C   0  0  0  0  0  0  0  0  0  0  0  0
    5.1420   -6.3537    2.6731 C   0  0  0  0  0  0  0  0  0  0  0  0
    5.9534   -7.1999    1.7872 N   0  0  0  0  0  0  0  0  0  0  0  0
    5.4856   -7.1811    0.3769 C   0  0  0  0  0  0  0  0  0  0  0  0
    6.4330   -7.9781   -0.6086 C   0  0  3  0  0  0  0  0  0  0  0  0
    5.8930   -7.8585   -2.0999 C   0  0  0  0  0  0  0  0  0  0  0  0
    4.9123   -7.1636   -2.3589 O   0  0  0  0  0  0  0  0  0  0  0  0
    6.5991   -8.6032   -3.0561 N   0  0  0  0  0  0  0  0  0  0  0  0
    6.3219   -8.7451   -4.4620 C   0  0  0  0  0  0  0  0  0  0  0  0
    5.3363   -8.0085   -5.1208 C   0  0  0  0  0  0  0  0  0  0  0  0
    5.0636   -8.0789   -6.4544 N   0  0  0  0  0  0  0  0  0  0  0  0
    5.7734   -8.9745   -7.1766 C   0  0  0  0  0  0  0  0  0  0  0  0
    6.7316   -9.8206   -6.6415 C   0  0  0  0  0  0  0  0  0  0  0  0
    7.3472  -10.7910   -7.4550 C   0  0  0  0  0  0  0  0  0  0  0  0
    8.3047  -11.6574   -6.9354 C   0  0  0  0  0  0  0  0  0  0  0  0
    8.6839  -11.5209   -5.6009 C   0  0  0  0  0  0  0  0  0  0  0  0
    8.0760  -10.5555   -4.7895 C   0  0  0  0  0  0  0  0  0  0  0  0
    7.0543   -9.6935   -5.2611 C   0  0  0  0  0  0  0  0  0  0  0  0
    7.8383   -7.3115   -0.5532 C   0  0  0  0  0  0  0  0  0  0  0  0
    8.9873   -8.2129   -0.1299 C   0  0  0  0  0  0  0  0  0  0  0  0
    8.6429   -9.2295    0.7974 O   0  0  0  0  0  0  0  0  0  0  0  0
    7.6224  -10.0088    0.3439 C   0  0  0  0  0  0  0  0  0  0  0  0
    7.7466  -11.3818    0.5490 C   0  0  0  0  0  0  0  0  0  0  0  0
    6.6832  -12.2270    0.2471 C   0  0  0  0  0  0  0  0  0  0  0  0
    5.4781  -11.6791   -0.1820 C   0  0  0  0  0  0  0  0  0  0  0  0
    4.1184  -12.7045   -0.4213 Cl  0  0  0  0  0  0  0  0  0  0  0  0
    5.3657  -10.3057   -0.4171 C   0  0  0  0  0  0  0  0  0  0  0  0
    6.4704   -9.4566   -0.2164 C   0  0  0  0  0  0  0  0  0  0  0  0
    6.9185   -6.6070    4.5159 C   0  0  0  0  0  0  0  0  0  0  0  0
    7.3106   -6.6099    5.8691 C   0  0  0  0  0  0  0  0  0  0  0  0
    8.6397   -6.9072    6.0531 O   0  0  0  0  0  0  0  0  0  0  0  0
    8.9782   -7.5746    7.2694 C   0  0  0  0  0  0  0  0  0  0  0  0
   10.2228   -8.4423    7.0833 C   0  0  0  0  0  0  0  0  0  0  0  0
   10.4073   -8.9581    5.8312 N   0  0  0  0  0  0  0  0  0  0  0  0
   10.9871   -8.7370    7.9988 O   0  0  0  0  0  0  0  0  0  0  0  0
    6.6386   -5.2632    9.9724 H   0  0  0  0  0  0  0  0  0  0  0  0
    5.1002   -5.4342    9.1413 H   0  0  0  0  0  0  0  0  0  0  0  0
    6.3175   -4.2318    8.5694 H   0  0  0  0  0  0  0  0  0  0  0  0
    4.2753   -5.8780    7.2335 H   0  0  0  0  0  0  0  0  0  0  0  0
    3.6114   -5.9404    4.8991 H   0  0  0  0  0  0  0  0  0  0  0  0
    5.1848   -5.3082    2.3420 H   0  0  0  0  0  0  0  0  0  0  0  0
    4.0978   -6.6852    2.6227 H   0  0  0  0  0  0  0  0  0  0  0  0
    5.9299   -8.1593    2.1349 H   0  0  0  0  0  0  0  0  0  0  0  0
    5.4330   -6.1388    0.0389 H   0  0  0  0  0  0  0  0  0  0  0  0
    4.4649   -7.5801    0.3310 H   0  0  0  0  0  0  0  0  0  0  0  0
    7.3566   -9.1698   -2.7038 H   0  0  0  0  0  0  0  0  0  0  0  0
    4.6898   -7.3064   -4.6096 H   0  0  0  0  0  0  0  0  0  0  0  0
    5.5282   -8.9883   -8.2356 H   0  0  0  0  0  0  0  0  0  0  0  0
    7.0677  -10.9023   -8.5052 H   0  0  0  0  0  0  0  0  0  0  0  0
    8.7491  -12.4294   -7.5588 H   0  0  0  0  0  0  0  0  0  0  0  0
    9.4451  -12.1791   -5.1939 H   0  0  0  0  0  0  0  0  0  0  0  0
    8.4195  -10.5085   -3.7582 H   0  0  0  0  0  0  0  0  0  0  0  0
    7.8224   -6.4588    0.1431 H   0  0  0  0  0  0  0  0  0  0  0  0
    8.1037   -6.8497   -1.5127 H   0  0  0  0  0  0  0  0  0  0  0  0
    9.7606   -7.6016    0.3523 H   0  0  0  0  0  0  0  0  0  0  0  0
    9.4615   -8.6848   -0.9970 H   0  0  0  0  0  0  0  0  0  0  0  0
    8.6759  -11.7890    0.9390 H   0  0  0  0  0  0  0  0  0  0  0  0
    6.7913  -13.3001    0.3793 H   0  0  0  0  0  0  0  0  0  0  0  0
    4.4140   -9.9053   -0.7643 H   0  0  0  0  0  0  0  0  0  0  0  0
    7.6730   -6.7945    3.7542 H   0  0  0  0  0  0  0  0  0  0  0  0
    8.1837   -8.2504    7.6070 H   0  0  0  0  0  0  0  0  0  0  0  0
    9.2168   -6.8261    8.0325 H   0  0  0  0  0  0  0  0  0  0  0  0
    9.8996   -8.5659    5.0476 H   0  0  0  0  0  0  0  0  0  0  0  0
   11.2516   -9.4854    5.6594 H   0  0  0  0  0  0  0  0  0  0  0  0
  1  2  1  0  0  0  0
  1 41  1  0  0  0  0
  1 42  1  0  0  0  0
  1 43  1  0  0  0  0
  2  3  1  0  0  0  0
  3  4  1  0  0  0  0
  3 35  2  0  0  0  0
  4  5  2  0  0  0  0
  4 44  1  0  0  0  0
  5  6  1  0  0  0  0
  5 45  1  0  0  0  0
  6  7  1  0  0  0  0
  6 34  2  0  0  0  0
  7  8  1  0  0  0  0
  7 46  1  0  0  0  0
  7 47  1  0  0  0  0
  8  9  1  0  0  0  0
  8 48  1  0  0  0  0
  9 10  1  0  0  0  0
  9 49  1  0  0  0  0
  9 50  1  0  0  0  0
 10 11  1  0  0  0  0
 10 24  1  0  0  0  0
 10 33  1  0  0  0  0
 11 12  2  0  0  0  0
 11 13  1  0  0  0  0
 13 14  1  0  0  0  0
 13 51  1  0  0  0  0
 14 15  1  0  0  0  0
 14 23  2  0  0  0  0
 15 16  2  0  0  0  0
 15 52  1  0  0  0  0
 16 17  1  0  0  0  0
 17 18  2  0  0  0  0
 17 53  1  0  0  0  0
 18 19  1  0  0  0  0
 18 23  1  0  0  0  0
 19 20  2  0  0  0  0
 19 54  1  0  0  0  0
 20 21  1  0  0  0  0
 20 55  1  0  0  0  0
 21 22  2  0  0  0  0
 21 56  1  0  0  0  0
 22 23  1  0  0  0  0
 22 57  1  0  0  0  0
 24 25  1  0  0  0  0
 24 58  1  0  0  0  0
 24 59  1  0  0  0  0
 25 26  1  0  0  0  0
 25 60  1  0  0  0  0
 25 61  1  0  0  0  0
 26 27  1  0  0  0  0
 27 28  1  0  0  0  0
 27 33  2  0  0  0  0
 28 29  2  0  0  0  0
 28 62  1  0  0  0  0
 29 30  1  0  0  0  0
 29 63  1  0  0  0  0
 30 31  1  0  0  0  0
 30 32  2  0  0  0  0
 32 33  1  0  0  0  0
 32 64  1  0  0  0  0
 34 35  1  0  0  0  0
 34 65  1  0  0  0  0
 35 36  1  0  0  0  0
 36 37  1  0  0  0  0
 37 38  1  0  0  0  0
 37 66  1  0  0  0  0
 37 67  1  0  0  0  0
 38 39  1  0  0  0  0
 38 40  2  0  0  0  0
 39 68  1  0  0  0  0
 39 69  1  0  0  0  0
M  END
$$$$
