
 OpenBabel07202414173D

 38 41  0  0  0  0  0  0  0  0999 V2000
    1.1410    0.3515    0.7924 Cl  0  0  0  0  0  0  0  0  0  0  0  0
    2.8249    0.0854    0.5441 C   0  0  0  0  0  0  0  0  0  0  0  0
    3.6753    1.1772    0.4277 C   0  0  0  0  0  0  0  0  0  0  0  0
    5.0290    0.9581    0.2076 C   0  0  0  0  0  0  0  0  0  0  0  0
    5.5260   -0.3481    0.1187 C   0  0  0  0  0  0  0  0  0  0  0  0
    4.6809   -1.4767    0.2395 C   0  0  0  0  0  0  0  0  0  0  0  0
    3.3156   -1.2231    0.4485 C   0  0  0  0  0  0  0  0  0  0  0  0
    5.2462   -2.8137    0.1180 N   0  0  0  0  0  0  0  0  0  0  0  0
    4.5171   -3.9793    0.4359 C   0  0  0  0  0  0  0  0  0  0  0  0
    3.3889   -3.9504    0.9168 O   0  0  0  0  0  0  0  0  0  0  0  0
    5.1699   -5.1785    0.2069 N   0  0  0  0  0  0  0  0  0  0  0  0
    4.7245   -6.4922    0.5587 C   0  0  0  0  0  0  0  0  0  0  0  0
    3.4790   -6.7420    1.1353 C   0  0  0  0  0  0  0  0  0  0  0  0
    3.0859   -7.9396    1.6303 N   0  0  0  0  0  0  0  0  0  0  0  0
    3.9592   -8.9564    1.5098 C   0  0  0  0  0  0  0  0  0  0  0  0
    5.1839   -8.8688    0.8531 C   0  0  0  0  0  0  0  0  0  0  0  0
    5.9850  -10.0113    0.6798 C   0  0  0  0  0  0  0  0  0  0  0  0
    7.1935   -9.9348   -0.0044 C   0  0  0  0  0  0  0  0  0  0  0  0
    7.6235   -8.7122   -0.5022 C   0  0  0  0  0  0  0  0  0  0  0  0
    6.8398   -7.5684   -0.3229 C   0  0  0  0  0  0  0  0  0  0  0  0
    5.5901   -7.6066    0.3550 C   0  0  0  0  0  0  0  0  0  0  0  0
    6.6275   -2.7978   -0.3980 C   0  0  0  0  0  0  0  0  0  0  0  0
    7.4294   -1.6743    0.2322 C   0  0  0  0  0  0  0  0  0  0  0  0
    6.8808   -0.4074   -0.1043 O   0  0  0  0  0  0  0  0  0  0  0  0
    3.2929    2.1909    0.5045 H   0  0  0  0  0  0  0  0  0  0  0  0
    5.7071    1.8029    0.1151 H   0  0  0  0  0  0  0  0  0  0  0  0
    2.5835   -2.0204    0.5138 H   0  0  0  0  0  0  0  0  0  0  0  0
    6.1097   -5.1432   -0.1221 H   0  0  0  0  0  0  0  0  0  0  0  0
    2.7108   -5.9837    1.2377 H   0  0  0  0  0  0  0  0  0  0  0  0
    3.6242   -9.8861    1.9623 H   0  0  0  0  0  0  0  0  0  0  0  0
    5.6566  -10.9739    1.0590 H   0  0  0  0  0  0  0  0  0  0  0  0
    7.7861  -10.8324   -0.1650 H   0  0  0  0  0  0  0  0  0  0  0  0
    8.5602   -8.6478   -1.0492 H   0  0  0  0  0  0  0  0  0  0  0  0
    7.2189   -6.6525   -0.7608 H   0  0  0  0  0  0  0  0  0  0  0  0
    6.5538   -2.6687   -1.4848 H   0  0  0  0  0  0  0  0  0  0  0  0
    7.1646   -3.7242   -0.2014 H   0  0  0  0  0  0  0  0  0  0  0  0
    8.4558   -1.6967   -0.1489 H   0  0  0  0  0  0  0  0  0  0  0  0
    7.4797   -1.7739    1.3240 H   0  0  0  0  0  0  0  0  0  0  0  0
  1  2  1  0  0  0  0
  2  3  1  0  0  0  0
  2  7  2  0  0  0  0
  3  4  2  0  0  0  0
  3 25  1  0  0  0  0
  4  5  1  0  0  0  0
  4 26  1  0  0  0  0
  5  6  2  0  0  0  0
  5 24  1  0  0  0  0
  6  7  1  0  0  0  0
  6  8  1  0  0  0  0
  7 27  1  0  0  0  0
  8  9  1  0  0  0  0
  8 22  1  0  0  0  0
  9 10  2  0  0  0  0
  9 11  1  0  0  0  0
 11 12  1  0  0  0  0
 11 28  1  0  0  0  0
 12 13  1  0  0  0  0
 12 21  2  0  0  0  0
 13 14  2  0  0  0  0
 13 29  1  0  0  0  0
 14 15  1  0  0  0  0
 15 16  2  0  0  0  0
 15 30  1  0  0  0  0
 16 17  1  0  0  0  0
 16 21  1  0  0  0  0
 17 18  2  0  0  0  0
 17 31  1  0  0  0  0
 18 19  1  0  0  0  0
 18 32  1  0  0  0  0
 19 20  2  0  0  0  0
 19 33  1  0  0  0  0
 20 21  1  0  0  0  0
 20 34  1  0  0  0  0
 22 23  1  0  0  0  0
 22 35  1  0  0  0  0
 22 36  1  0  0  0  0
 23 24  1  0  0  0  0
 23 37  1  0  0  0  0
 23 38  1  0  0  0  0
M  END
$$$$
