
 OpenBabel07202414133D

 83 83  0  0  1  0  0  0  0  0999 V2000
   14.2808    5.1527    5.8776 C   0  0  0  0  0  0  0  0  0  0  0  0
   12.9220    4.5024    6.0652 C   0  0  0  0  0  0  0  0  0  0  0  0
   12.9792    3.1977    5.4673 O   0  0  0  0  0  0  0  0  0  0  0  0
   12.6364    3.1500    4.1485 C   0  0  0  0  0  0  0  0  0  0  0  0
   12.0867    4.0454    3.5221 O   0  0  0  0  0  0  0  0  0  0  0  0
   13.1017    1.8990    3.5154 C   0  0  3  0  0  0  0  0  0  0  0  0
   12.9219    1.8612    2.0814 O   0  0  0  0  0  0  0  0  0  0  0  0
   12.1588    0.9237    2.8525 C   0  0  3  0  0  0  0  0  0  0  0  0
   10.6957    1.1451    2.9826 C   0  0  0  0  0  0  0  0  0  0  0  0
   10.2372    1.1220    4.1205 O   0  0  0  0  0  0  0  0  0  0  0  0
    9.9488    1.3470    1.8265 N   0  0  0  0  0  0  0  0  0  0  0  0
    8.4782    1.4844    1.8233 C   0  0  0  0  0  0  0  0  0  0  0  0
    7.8791    2.3036    2.9658 C   0  0  0  0  0  0  0  0  0  0  0  0
    6.3961    2.4828    2.7778 C   0  0  0  0  0  0  0  0  0  0  0  0
    5.7901    3.2039    3.7729 N   0  0  0  0  0  0  0  0  0  0  0  0
    5.7340    2.0442    1.8399 O   0  0  0  0  0  0  0  0  0  0  0  0
   10.5750    1.2765    0.5393 N   0  0  0  0  0  0  0  0  0  0  0  0
    9.9789    0.7163   -0.5831 C   0  0  0  0  0  0  0  0  0  0  0  0
    8.9001    0.1242   -0.5665 O   0  0  0  0  0  0  0  0  0  0  0  0
   10.7834    0.8512   -1.8998 C   0  0  1  0  0  0  0  0  0  0  0  0
   11.0331    2.3139   -2.3590 C   0  0  0  0  0  0  0  0  0  0  0  0
   12.0191    3.2004   -1.5612 C   0  0  0  0  0  0  0  0  0  0  0  0
   13.3841    2.5786   -1.2687 C   0  0  0  0  0  0  0  0  0  0  0  0
   12.2823    4.5188   -2.3015 C   0  0  0  0  0  0  0  0  0  0  0  0
   11.9914    0.0350   -1.8581 N   0  0  0  0  0  0  0  0  0  0  0  0
   12.7862   -0.1032   -2.9739 C   0  0  0  0  0  0  0  0  0  0  0  0
   12.4234    0.3252   -4.0657 O   0  0  0  0  0  0  0  0  0  0  0  0
   14.2096   -0.6897   -2.7045 C   0  0  1  0  0  0  0  0  0  0  0  0
   14.0844   -2.0394   -2.1462 N   0  0  0  0  0  0  0  0  0  0  0  0
   13.8863   -2.2654   -0.8068 C   0  0  0  0  0  0  0  0  0  0  0  0
   13.8240   -1.3590    0.0217 O   0  0  0  0  0  0  0  0  0  0  0  0
   13.6225   -3.7123   -0.4490 C   0  0  0  0  0  0  0  0  0  0  0  0
   12.2665   -3.8296    0.2492 C   0  0  0  0  0  0  0  0  0  0  0  0
   11.1116   -3.2926   -0.5995 C   0  0  0  0  0  0  0  0  0  0  0  0
   10.9799   -4.0983   -1.8816 C   0  0  0  0  0  0  0  0  0  0  0  0
   10.8670   -4.7894   -2.9815 C   0  0  0  0  0  0  0  0  0  0  0  0
   15.1457   -0.6381   -3.9548 C   0  0  0  0  0  0  0  0  0  0  0  0
   15.4596    0.8319   -4.3175 C   0  0  0  0  0  0  0  0  0  0  0  0
   16.4986   -1.3215   -3.6467 C   0  0  0  0  0  0  0  0  0  0  0  0
   14.5291   -1.3580   -5.1724 C   0  0  0  0  0  0  0  0  0  0  0  0
   14.3043    6.1616    6.2957 H   0  0  0  0  0  0  0  0  0  0  0  0
   14.5428    5.2026    4.8147 H   0  0  0  0  0  0  0  0  0  0  0  0
   15.0563    4.5491    6.3618 H   0  0  0  0  0  0  0  0  0  0  0  0
   12.1211    5.1196    5.6420 H   0  0  0  0  0  0  0  0  0  0  0  0
   12.7068    4.3781    7.1318 H   0  0  0  0  0  0  0  0  0  0  0  0
   14.0232    1.4952    3.9171 H   0  0  0  0  0  0  0  0  0  0  0  0
   12.4611   -0.1161    2.8243 H   0  0  0  0  0  0  0  0  0  0  0  0
    8.0611    0.4697    1.8478 H   0  0  0  0  0  0  0  0  0  0  0  0
    8.1798    1.9648    0.8839 H   0  0  0  0  0  0  0  0  0  0  0  0
    8.3532    3.2903    3.0150 H   0  0  0  0  0  0  0  0  0  0  0  0
    8.0219    1.8048    3.9290 H   0  0  0  0  0  0  0  0  0  0  0  0
    6.2852    3.5270    4.5893 H   0  0  0  0  0  0  0  0  0  0  0  0
    4.7852    3.3308    3.7268 H   0  0  0  0  0  0  0  0  0  0  0  0
   11.5394    1.5970    0.5073 H   0  0  0  0  0  0  0  0  0  0  0  0
   10.1466    0.3935   -2.6731 H   0  0  0  0  0  0  0  0  0  0  0  0
   10.0584    2.8299   -2.3840 H   0  0  0  0  0  0  0  0  0  0  0  0
   11.3568    2.3091   -3.4079 H   0  0  0  0  0  0  0  0  0  0  0  0
   11.5431    3.4552   -0.6093 H   0  0  0  0  0  0  0  0  0  0  0  0
   13.9647    2.4480   -2.1875 H   0  0  0  0  0  0  0  0  0  0  0  0
   13.3181    1.6219   -0.7555 H   0  0  0  0  0  0  0  0  0  0  0  0
   13.9599    3.2228   -0.5977 H   0  0  0  0  0  0  0  0  0  0  0  0
   12.8104    4.3450   -3.2470 H   0  0  0  0  0  0  0  0  0  0  0  0
   12.9139    5.1725   -1.6887 H   0  0  0  0  0  0  0  0  0  0  0  0
   11.3545    5.0538   -2.5201 H   0  0  0  0  0  0  0  0  0  0  0  0
   12.3407   -0.3185   -0.9686 H   0  0  0  0  0  0  0  0  0  0  0  0
   14.6596   -0.0604   -1.9226 H   0  0  0  0  0  0  0  0  0  0  0  0
   13.8681   -2.7873   -2.7940 H   0  0  0  0  0  0  0  0  0  0  0  0
   14.4234   -4.0612    0.2110 H   0  0  0  0  0  0  0  0  0  0  0  0
   13.6517   -4.3484   -1.3411 H   0  0  0  0  0  0  0  0  0  0  0  0
   12.2905   -3.2781    1.1971 H   0  0  0  0  0  0  0  0  0  0  0  0
   12.0880   -4.8830    0.5001 H   0  0  0  0  0  0  0  0  0  0  0  0
   11.2319   -2.2373   -0.8383 H   0  0  0  0  0  0  0  0  0  0  0  0
   10.1756   -3.3852   -0.0364 H   0  0  0  0  0  0  0  0  0  0  0  0
   10.7589   -5.3520   -3.8804 H   0  0  0  0  0  0  0  0  0  0  0  0
   15.9669    1.3398   -3.4890 H   0  0  0  0  0  0  0  0  0  0  0  0
   14.5634    1.4110   -4.5540 H   0  0  0  0  0  0  0  0  0  0  0  0
   16.1186    0.8910   -5.1905 H   0  0  0  0  0  0  0  0  0  0  0  0
   17.0076   -0.8484   -2.7986 H   0  0  0  0  0  0  0  0  0  0  0  0
   17.1651   -1.2607   -4.5140 H   0  0  0  0  0  0  0  0  0  0  0  0
   16.3724   -2.3831   -3.4142 H   0  0  0  0  0  0  0  0  0  0  0  0
   13.5961   -0.9055   -5.5131 H   0  0  0  0  0  0  0  0  0  0  0  0
   14.3191   -2.4082   -4.9478 H   0  0  0  0  0  0  0  0  0  0  0  0
   15.2082   -1.3267   -6.0297 H   0  0  0  0  0  0  0  0  0  0  0  0
  1  2  1  0  0  0  0
  1 41  1  0  0  0  0
  1 42  1  0  0  0  0
  1 43  1  0  0  0  0
  2  3  1  0  0  0  0
  2 44  1  0  0  0  0
  2 45  1  0  0  0  0
  3  4  1  0  0  0  0
  4  5  2  0  0  0  0
  4  6  1  0  0  0  0
  6  7  1  0  0  0  0
  6  8  1  0  0  0  0
  6 46  1  0  0  0  0
  7  8  1  0  0  0  0
  8  9  1  0  0  0  0
  8 47  1  0  0  0  0
  9 10  2  0  0  0  0
  9 11  1  0  0  0  0
 11 12  1  0  0  0  0
 11 17  1  0  0  0  0
 12 13  1  0  0  0  0
 12 48  1  0  0  0  0
 12 49  1  0  0  0  0
 13 14  1  0  0  0  0
 13 50  1  0  0  0  0
 13 51  1  0  0  0  0
 14 15  1  0  0  0  0
 14 16  2  0  0  0  0
 15 52  1  0  0  0  0
 15 53  1  0  0  0  0
 17 18  1  0  0  0  0
 17 54  1  0  0  0  0
 18 19  2  0  0  0  0
 18 20  1  0  0  0  0
 20 21  1  0  0  0  0
 20 25  1  0  0  0  0
 20 55  1  6  0  0  0
 21 22  1  0  0  0  0
 21 56  1  0  0  0  0
 21 57  1  0  0  0  0
 22 23  1  0  0  0  0
 22 24  1  0  0  0  0
 22 58  1  0  0  0  0
 23 59  1  0  0  0  0
 23 60  1  0  0  0  0
 23 61  1  0  0  0  0
 24 62  1  0  0  0  0
 24 63  1  0  0  0  0
 24 64  1  0  0  0  0
 25 26  1  0  0  0  0
 25 65  1  0  0  0  0
 26 27  2  0  0  0  0
 26 28  1  0  0  0  0
 28 29  1  0  0  0  0
 28 37  1  0  0  0  0
 28 66  1  1  0  0  0
 29 30  1  0  0  0  0
 29 67  1  0  0  0  0
 30 31  2  0  0  0  0
 30 32  1  0  0  0  0
 32 33  1  0  0  0  0
 32 68  1  0  0  0  0
 32 69  1  0  0  0  0
 33 34  1  0  0  0  0
 33 70  1  0  0  0  0
 33 71  1  0  0  0  0
 34 35  1  0  0  0  0
 34 72  1  0  0  0  0
 34 73  1  0  0  0  0
 35 36  3  0  0  0  0
 36 74  1  0  0  0  0
 37 38  1  0  0  0  0
 37 39  1  0  0  0  0
 37 40  1  0  0  0  0
 38 75  1  0  0  0  0
 38 76  1  0  0  0  0
 38 77  1  0  0  0  0
 39 78  1  0  0  0  0
 39 79  1  0  0  0  0
 39 80  1  0  0  0  0
 40 81  1  0  0  0  0
 40 82  1  0  0  0  0
 40 83  1  0  0  0  0
M  END
$$$$
