
 OpenBabel07202414143D

 53 56  0  0  1  0  0  0  0  0999 V2000
    3.6559   -1.8759   -3.5129 C   0  0  0  0  0  0  0  0  0  0  0  0
    3.6630   -0.7552   -2.6056 N   0  0  0  0  0  0  0  0  0  0  0  0
    4.7780   -0.4728   -1.8485 C   0  0  0  0  0  0  0  0  0  0  0  0
    5.7921   -1.1693   -1.8570 O   0  0  0  0  0  0  0  0  0  0  0  0
    4.6932    0.8059   -1.0312 C   0  0  0  0  0  0  0  0  0  0  0  0
    5.0718    2.0163   -1.8374 N   0  0  0  0  0  0  0  0  0  0  0  0
    6.5019    1.9803   -2.2850 C   0  0  0  0  0  0  0  0  0  0  0  0
    6.7525    3.0059   -3.4221 C   0  0  1  0  0  0  0  0  0  0  0  0
    8.2953    3.0541   -3.5866 C   0  0  0  0  0  0  0  0  0  0  0  0
    6.1167    2.4546   -4.7416 C   0  0  0  0  0  0  0  0  0  0  0  0
    6.7839    2.3068   -5.7634 O   0  0  0  0  0  0  0  0  0  0  0  0
    4.7537    2.1942   -4.6494 N   0  0  0  0  0  0  0  0  0  0  0  0
    3.9181    1.5287   -5.5925 C   0  0  0  0  0  0  0  0  0  0  0  0
    4.4012    0.9659   -6.7706 C   0  0  0  0  0  0  0  0  0  0  0  0
    3.6978    0.1173   -7.5589 N   0  0  0  0  0  0  0  0  0  0  0  0
    2.4106   -0.1028   -7.2196 C   0  0  0  0  0  0  0  0  0  0  0  0
    1.7577    0.5616   -6.1885 C   0  0  0  0  0  0  0  0  0  0  0  0
    0.3581    0.4513   -6.0371 C   0  0  0  0  0  0  0  0  0  0  0  0
   -0.2949    1.1625   -5.0362 C   0  0  0  0  0  0  0  0  0  0  0  0
    0.4398    1.9148   -4.1337 C   0  0  0  0  0  0  0  0  0  0  0  0
    1.8310    2.0077   -4.2623 C   0  0  0  0  0  0  0  0  0  0  0  0
    2.5268    1.3710   -5.3203 C   0  0  0  0  0  0  0  0  0  0  0  0
    6.2161    4.4191   -3.1163 C   0  0  0  0  0  0  0  0  0  0  0  0
    6.6371    5.5136   -3.9044 C   0  0  0  0  0  0  0  0  0  0  0  0
    6.1716    6.8098   -3.6604 C   0  0  0  0  0  0  0  0  0  0  0  0
    6.7753    8.1240   -4.5922 Cl  0  0  0  0  0  0  0  0  0  0  0  0
    5.2357    7.0487   -2.6615 C   0  0  0  0  0  0  0  0  0  0  0  0
    4.7916    5.9906   -1.8735 C   0  0  0  0  0  0  0  0  0  0  0  0
    5.2986    4.6982   -2.0825 C   0  0  0  0  0  0  0  0  0  0  0  0
    4.7362    3.4458   -0.9637 S   0  0  0  0  0  0  0  0  0  0  0  0
    3.2921    3.5353   -0.8847 O   0  0  0  0  0  0  0  0  0  0  0  0
    5.5847    3.4776    0.1990 O   0  0  0  0  0  0  0  0  0  0  0  0
    2.6277   -2.0647   -3.8290 H   0  0  0  0  0  0  0  0  0  0  0  0
    4.0622   -2.7599   -3.0141 H   0  0  0  0  0  0  0  0  0  0  0  0
    4.2757   -1.6332   -4.3801 H   0  0  0  0  0  0  0  0  0  0  0  0
    2.9223   -0.0693   -2.6857 H   0  0  0  0  0  0  0  0  0  0  0  0
    5.3453    0.7002   -0.1568 H   0  0  0  0  0  0  0  0  0  0  0  0
    3.6612    0.9053   -0.6744 H   0  0  0  0  0  0  0  0  0  0  0  0
    6.7631    0.9816   -2.6487 H   0  0  0  0  0  0  0  0  0  0  0  0
    7.1555    2.1742   -1.4225 H   0  0  0  0  0  0  0  0  0  0  0  0
    8.7109    2.0452   -3.6981 H   0  0  0  0  0  0  0  0  0  0  0  0
    8.7711    3.5165   -2.7132 H   0  0  0  0  0  0  0  0  0  0  0  0
    8.6131    3.6152   -4.4717 H   0  0  0  0  0  0  0  0  0  0  0  0
    4.3497    2.3322   -3.7307 H   0  0  0  0  0  0  0  0  0  0  0  0
    5.4041    1.1558   -7.1407 H   0  0  0  0  0  0  0  0  0  0  0  0
    1.9044   -0.8394   -7.8370 H   0  0  0  0  0  0  0  0  0  0  0  0
   -0.2319   -0.1350   -6.7402 H   0  0  0  0  0  0  0  0  0  0  0  0
   -1.3832    1.1460   -4.9751 H   0  0  0  0  0  0  0  0  0  0  0  0
   -0.0652    2.4676   -3.3419 H   0  0  0  0  0  0  0  0  0  0  0  0
    2.3463    2.6416   -3.5456 H   0  0  0  0  0  0  0  0  0  0  0  0
    7.3471    5.3719   -4.7184 H   0  0  0  0  0  0  0  0  0  0  0  0
    4.8581    8.0528   -2.4852 H   0  0  0  0  0  0  0  0  0  0  0  0
    4.0638    6.1798   -1.0854 H   0  0  0  0  0  0  0  0  0  0  0  0
  1  2  1  0  0  0  0
  1 33  1  0  0  0  0
  1 34  1  0  0  0  0
  1 35  1  0  0  0  0
  2  3  1  0  0  0  0
  2 36  1  0  0  0  0
  3  4  2  0  0  0  0
  3  5  1  0  0  0  0
  5  6  1  0  0  0  0
  5 37  1  0  0  0  0
  5 38  1  0  0  0  0
  6  7  1  0  0  0  0
  6 30  1  0  0  0  0
  7  8  1  0  0  0  0
  7 39  1  0  0  0  0
  7 40  1  0  0  0  0
  8  9  1  0  0  0  0
  8 10  1  6  0  0  0
  8 23  1  0  0  0  0
  9 41  1  0  0  0  0
  9 42  1  0  0  0  0
  9 43  1  0  0  0  0
 10 11  2  0  0  0  0
 10 12  1  0  0  0  0
 12 13  1  0  0  0  0
 12 44  1  0  0  0  0
 13 14  1  0  0  0  0
 13 22  2  0  0  0  0
 14 15  2  0  0  0  0
 14 45  1  0  0  0  0
 15 16  1  0  0  0  0
 16 17  2  0  0  0  0
 16 46  1  0  0  0  0
 17 18  1  0  0  0  0
 17 22  1  0  0  0  0
 18 19  2  0  0  0  0
 18 47  1  0  0  0  0
 19 20  1  0  0  0  0
 19 48  1  0  0  0  0
 20 21  2  0  0  0  0
 20 49  1  0  0  0  0
 21 22  1  0  0  0  0
 21 50  1  0  0  0  0
 23 24  1  0  0  0  0
 23 29  2  0  0  0  0
 24 25  2  0  0  0  0
 24 51  1  0  0  0  0
 25 26  1  0  0  0  0
 25 27  1  0  0  0  0
 27 28  2  0  0  0  0
 27 52  1  0  0  0  0
 28 29  1  0  0  0  0
 28 53  1  0  0  0  0
 29 30  1  0  0  0  0
 30 31  2  0  0  0  0
 30 32  2  0  0  0  0
M  END
$$$$
