
 OpenBabel07202414183D

 48 51  0  0  0  0  0  0  0  0999 V2000
    4.7622   -2.8209   -4.1425 F   0  0  0  0  0  0  0  0  0  0  0  0
    4.0093   -2.5859   -3.0268 C   0  0  0  0  0  0  0  0  0  0  0  0
    4.8012   -1.8389   -2.2102 F   0  0  0  0  0  0  0  0  0  0  0  0
    3.0042   -1.7615   -3.4407 F   0  0  0  0  0  0  0  0  0  0  0  0
    3.5042   -3.8408   -2.3838 C   0  0  0  0  0  0  0  0  0  0  0  0
    3.9079   -5.0988   -2.8577 C   0  0  0  0  0  0  0  0  0  0  0  0
    3.4732   -6.2526   -2.2195 C   0  0  0  0  0  0  0  0  0  0  0  0
    2.6589   -6.1105   -1.1154 C   0  0  0  0  0  0  0  0  0  0  0  0
    2.2555   -4.9157   -0.6395 N   0  0  0  0  0  0  0  0  0  0  0  0
    2.6656   -3.7903   -1.2697 C   0  0  0  0  0  0  0  0  0  0  0  0
    2.1476   -2.5600   -0.8227 N   0  0  0  0  0  0  0  0  0  0  0  0
    1.7595   -2.2529    0.5002 C   0  0  0  0  0  0  0  0  0  0  0  0
    0.6949   -1.3703    0.7181 C   0  0  0  0  0  0  0  0  0  0  0  0
    0.4201   -0.8646    1.9999 C   0  0  0  0  0  0  0  0  0  0  0  0
   -0.6217    0.2123    2.1833 C   0  0  0  0  0  0  0  0  0  0  0  0
   -0.0364    1.6138    2.0702 C   0  0  0  0  0  0  0  0  0  0  0  0
   -0.3546    2.4944    2.8680 O   0  0  0  0  0  0  0  0  0  0  0  0
    0.7564    1.8173    0.9531 N   0  0  0  0  0  0  0  0  0  0  0  0
    1.3360    3.0692    0.6567 C   0  0  0  0  0  0  0  0  0  0  0  0
    1.9582    3.8181    1.6577 C   0  0  0  0  0  0  0  0  0  0  0  0
    2.4942    5.0417    1.4694 N   0  0  0  0  0  0  0  0  0  0  0  0
    2.3367    5.5731    0.2385 C   0  0  0  0  0  0  0  0  0  0  0  0
    1.7092    4.9326   -0.8339 C   0  0  0  0  0  0  0  0  0  0  0  0
    1.4939    5.5950   -2.0553 C   0  0  0  0  0  0  0  0  0  0  0  0
    0.8465    4.9535   -3.1083 C   0  0  0  0  0  0  0  0  0  0  0  0
    0.4525    3.6294   -2.9696 C   0  0  0  0  0  0  0  0  0  0  0  0
    0.6565    2.9617   -1.7605 C   0  0  0  0  0  0  0  0  0  0  0  0
    1.2494    3.6103   -0.6484 C   0  0  0  0  0  0  0  0  0  0  0  0
    1.2030   -1.2804    3.0828 C   0  0  0  0  0  0  0  0  0  0  0  0
    2.2266   -2.2027    2.8825 C   0  0  0  0  0  0  0  0  0  0  0  0
    3.1930   -2.6999    4.2173 Cl  0  0  0  0  0  0  0  0  0  0  0  0
    2.5069   -2.6834    1.6032 C   0  0  0  0  0  0  0  0  0  0  0  0
    4.5658   -5.1807   -3.7219 H   0  0  0  0  0  0  0  0  0  0  0  0
    3.7665   -7.2357   -2.5704 H   0  0  0  0  0  0  0  0  0  0  0  0
    2.2905   -6.9744   -0.5699 H   0  0  0  0  0  0  0  0  0  0  0  0
    1.4996   -2.2006   -1.5171 H   0  0  0  0  0  0  0  0  0  0  0  0
    0.0853   -1.0515   -0.1249 H   0  0  0  0  0  0  0  0  0  0  0  0
   -1.0677    0.1121    3.1844 H   0  0  0  0  0  0  0  0  0  0  0  0
   -1.4346    0.1003    1.4633 H   0  0  0  0  0  0  0  0  0  0  0  0
    0.6360    1.1751    0.1860 H   0  0  0  0  0  0  0  0  0  0  0  0
    2.0633    3.4306    2.6676 H   0  0  0  0  0  0  0  0  0  0  0  0
    2.7317    6.5814    0.1387 H   0  0  0  0  0  0  0  0  0  0  0  0
    1.7992    6.6322   -2.1782 H   0  0  0  0  0  0  0  0  0  0  0  0
    0.6457    5.4905   -4.0316 H   0  0  0  0  0  0  0  0  0  0  0  0
   -0.0375    3.1195   -3.7968 H   0  0  0  0  0  0  0  0  0  0  0  0
    0.3145    1.9340   -1.6963 H   0  0  0  0  0  0  0  0  0  0  0  0
    1.0305   -0.8701    4.0765 H   0  0  0  0  0  0  0  0  0  0  0  0
    3.3396   -3.3676    1.4624 H   0  0  0  0  0  0  0  0  0  0  0  0
  1  2  1  0  0  0  0
  2  3  1  0  0  0  0
  2  4  1  0  0  0  0
  2  5  1  0  0  0  0
  5  6  2  0  0  0  0
  5 10  1  0  0  0  0
  6  7  1  0  0  0  0
  6 33  1  0  0  0  0
  7  8  2  0  0  0  0
  7 34  1  0  0  0  0
  8  9  1  0  0  0  0
  8 35  1  0  0  0  0
  9 10  2  0  0  0  0
 10 11  1  0  0  0  0
 11 12  1  0  0  0  0
 11 36  1  0  0  0  0
 12 13  2  0  0  0  0
 12 32  1  0  0  0  0
 13 14  1  0  0  0  0
 13 37  1  0  0  0  0
 14 15  1  0  0  0  0
 14 29  2  0  0  0  0
 15 16  1  0  0  0  0
 15 38  1  0  0  0  0
 15 39  1  0  0  0  0
 16 17  2  0  0  0  0
 16 18  1  0  0  0  0
 18 19  1  0  0  0  0
 18 40  1  0  0  0  0
 19 20  2  0  0  0  0
 19 28  1  0  0  0  0
 20 21  1  0  0  0  0
 20 41  1  0  0  0  0
 21 22  2  0  0  0  0
 22 23  1  0  0  0  0
 22 42  1  0  0  0  0
 23 24  2  0  0  0  0
 23 28  1  0  0  0  0
 24 25  1  0  0  0  0
 24 43  1  0  0  0  0
 25 26  2  0  0  0  0
 25 44  1  0  0  0  0
 26 27  1  0  0  0  0
 26 45  1  0  0  0  0
 27 28  2  0  0  0  0
 27 46  1  0  0  0  0
 29 30  1  0  0  0  0
 29 47  1  0  0  0  0
 30 31  1  0  0  0  0
 30 32  2  0  0  0  0
 32 48  1  0  0  0  0
M  END
$$$$
