
 OpenBabel07202414113D

 40 41  0  0  0  0  0  0  0  0999 V2000
    1.2100   -0.0591   -0.6023 C   0  0  0  0  0  0  0  0  0  0  0  0
    2.5112    0.0446    0.1517 C   0  0  0  0  0  0  0  0  0  0  0  0
    2.9137    1.1406    0.5418 O   0  0  0  0  0  0  0  0  0  0  0  0
    3.1995   -1.1323    0.3914 N   0  0  0  0  0  0  0  0  0  0  0  0
    2.8183   -2.4535   -0.1130 C   0  0  0  0  0  0  0  0  0  0  0  0
    3.0253   -3.5421    0.9600 C   0  0  0  0  0  0  0  0  0  0  0  0
    4.3613   -3.5644    1.6124 N   0  0  0  0  0  0  0  0  0  0  0  0
    5.4241   -4.0282    0.6960 C   0  0  0  0  0  0  0  0  0  0  0  0
    5.1509   -5.4419    0.1966 C   0  0  0  0  0  0  0  0  0  0  0  0
    5.1185   -5.6625   -1.0146 O   0  0  0  0  0  0  0  0  0  0  0  0
    4.9327   -6.3690    1.2030 N   0  0  0  0  0  0  0  0  0  0  0  0
    4.7279   -7.7543    0.9959 C   0  0  0  0  0  0  0  0  0  0  0  0
    5.0523   -8.3787   -0.2158 C   0  0  0  0  0  0  0  0  0  0  0  0
    4.8693   -9.6865   -0.4986 N   0  0  0  0  0  0  0  0  0  0  0  0
    4.3400  -10.4351    0.4811 C   0  0  0  0  0  0  0  0  0  0  0  0
    4.0074   -9.9375    1.7296 C   0  0  0  0  0  0  0  0  0  0  0  0
    4.1929   -8.5717    2.0068 C   0  0  0  0  0  0  0  0  0  0  0  0
    3.7945   -8.0628    3.3649 C   0  0  0  0  0  0  0  0  0  0  0  0
    4.6763   -2.1915    2.0882 C   0  0  0  0  0  0  0  0  0  0  0  0
    4.5118   -1.0728    1.0358 C   0  0  0  0  0  0  0  0  0  0  0  0
    0.7940    0.9429   -0.7463 H   0  0  0  0  0  0  0  0  0  0  0  0
    0.4893   -0.6482   -0.0293 H   0  0  0  0  0  0  0  0  0  0  0  0
    1.3771   -0.5016   -1.5874 H   0  0  0  0  0  0  0  0  0  0  0  0
    3.4315   -2.6552   -0.9987 H   0  0  0  0  0  0  0  0  0  0  0  0
    1.7738   -2.4699   -0.4323 H   0  0  0  0  0  0  0  0  0  0  0  0
    2.7769   -4.5213    0.5356 H   0  0  0  0  0  0  0  0  0  0  0  0
    2.2849   -3.3817    1.7552 H   0  0  0  0  0  0  0  0  0  0  0  0
    6.3913   -4.0531    1.2122 H   0  0  0  0  0  0  0  0  0  0  0  0
    5.5357   -3.3818   -0.1824 H   0  0  0  0  0  0  0  0  0  0  0  0
    4.7473   -5.9755    2.1210 H   0  0  0  0  0  0  0  0  0  0  0  0
    5.5075   -7.8348   -1.0396 H   0  0  0  0  0  0  0  0  0  0  0  0
    4.1819  -11.4795    0.2270 H   0  0  0  0  0  0  0  0  0  0  0  0
    3.5916  -10.6128    2.4727 H   0  0  0  0  0  0  0  0  0  0  0  0
    3.2159   -8.8146    3.9156 H   0  0  0  0  0  0  0  0  0  0  0  0
    3.1559   -7.1791    3.2754 H   0  0  0  0  0  0  0  0  0  0  0  0
    4.6783   -7.8223    3.9626 H   0  0  0  0  0  0  0  0  0  0  0  0
    5.6917   -2.1611    2.5016 H   0  0  0  0  0  0  0  0  0  0  0  0
    4.0045   -1.9744    2.9282 H   0  0  0  0  0  0  0  0  0  0  0  0
    5.2642   -1.1667    0.2445 H   0  0  0  0  0  0  0  0  0  0  0  0
    4.6710   -0.1014    1.5140 H   0  0  0  0  0  0  0  0  0  0  0  0
  1  2  1  0  0  0  0
  1 21  1  0  0  0  0
  1 22  1  0  0  0  0
  1 23  1  0  0  0  0
  2  3  2  0  0  0  0
  2  4  1  0  0  0  0
  4  5  1  0  0  0  0
  4 20  1  0  0  0  0
  5  6  1  0  0  0  0
  5 24  1  0  0  0  0
  5 25  1  0  0  0  0
  6  7  1  0  0  0  0
  6 26  1  0  0  0  0
  6 27  1  0  0  0  0
  7  8  1  0  0  0  0
  7 19  1  0  0  0  0
  8  9  1  0  0  0  0
  8 28  1  0  0  0  0
  8 29  1  0  0  0  0
  9 10  2  0  0  0  0
  9 11  1  0  0  0  0
 11 12  1  0  0  0  0
 11 30  1  0  0  0  0
 12 13  1  0  0  0  0
 12 17  2  0  0  0  0
 13 14  2  0  0  0  0
 13 31  1  0  0  0  0
 14 15  1  0  0  0  0
 15 16  2  0  0  0  0
 15 32  1  0  0  0  0
 16 17  1  0  0  0  0
 16 33  1  0  0  0  0
 17 18  1  0  0  0  0
 18 34  1  0  0  0  0
 18 35  1  0  0  0  0
 18 36  1  0  0  0  0
 19 20  1  0  0  0  0
 19 37  1  0  0  0  0
 19 38  1  0  0  0  0
 20 39  1  0  0  0  0
 20 40  1  0  0  0  0
M  END
$$$$
