
 OpenBabel07202414183D

 45 48  0  0  0  0  0  0  0  0999 V2000
    8.8701    2.1137   -6.4197 F   0  0  0  0  0  0  0  0  0  0  0  0
    8.9958    1.2421   -5.4132 C   0  0  0  0  0  0  0  0  0  0  0  0
    8.6125    1.5941   -4.1338 C   0  0  0  0  0  0  0  0  0  0  0  0
    8.8006    0.6783   -3.0917 C   0  0  0  0  0  0  0  0  0  0  0  0
    8.4735    1.3671   -1.3478 Br  0  0  0  0  0  0  0  0  0  0  0  0
    9.3144   -0.6014   -3.3760 C   0  0  0  0  0  0  0  0  0  0  0  0
    9.5567   -1.6144   -2.4372 N   0  0  0  0  0  0  0  0  0  0  0  0
    8.8724   -1.9825   -1.2658 C   0  0  0  0  0  0  0  0  0  0  0  0
    7.4989   -1.7710   -1.1088 C   0  0  0  0  0  0  0  0  0  0  0  0
    6.9109   -1.9334    0.1455 C   0  0  0  0  0  0  0  0  0  0  0  0
    5.2709   -1.4724    0.3762 Cl  0  0  0  0  0  0  0  0  0  0  0  0
    7.6637   -2.3786    1.2348 C   0  0  0  0  0  0  0  0  0  0  0  0
    9.0217   -2.6969    1.0758 C   0  0  0  0  0  0  0  0  0  0  0  0
    9.8682   -3.0190    2.3042 C   0  0  0  0  0  0  0  0  0  0  0  0
   10.6441   -4.3184    2.3552 C   0  0  0  0  0  0  0  0  0  0  0  0
   11.7061   -4.3516    3.0094 O   0  0  0  0  0  0  0  0  0  0  0  0
   10.1185   -5.3945    1.6966 N   0  0  0  0  0  0  0  0  0  0  0  0
   10.6301   -6.7213    1.6801 C   0  0  0  0  0  0  0  0  0  0  0  0
   10.6079   -7.3410    0.4184 C   0  0  0  0  0  0  0  0  0  0  0  0
   10.8666   -8.6435    0.1754 N   0  0  0  0  0  0  0  0  0  0  0  0
   11.0858   -9.3982    1.2731 C   0  0  0  0  0  0  0  0  0  0  0  0
   11.1359   -8.9063    2.5734 C   0  0  0  0  0  0  0  0  0  0  0  0
   11.3204   -9.8053    3.6350 C   0  0  0  0  0  0  0  0  0  0  0  0
   11.8288   -9.3558    4.8428 C   0  0  0  0  0  0  0  0  0  0  0  0
   11.8362   -7.9927    5.0918 C   0  0  0  0  0  0  0  0  0  0  0  0
   11.3108   -7.1022    4.1275 C   0  0  0  0  0  0  0  0  0  0  0  0
   11.0318   -7.5139    2.7995 C   0  0  0  0  0  0  0  0  0  0  0  0
    9.6097   -2.5115   -0.1869 C   0  0  0  0  0  0  0  0  0  0  0  0
    9.6967   -0.9326   -4.6378 N   0  0  0  0  0  0  0  0  0  0  0  0
    9.5400   -0.0081   -5.6198 C   0  0  0  0  0  0  0  0  0  0  0  0
    8.2106    2.5854   -3.9548 H   0  0  0  0  0  0  0  0  0  0  0  0
    9.9907   -2.4006   -2.9173 H   0  0  0  0  0  0  0  0  0  0  0  0
    6.8995   -1.4025   -1.9337 H   0  0  0  0  0  0  0  0  0  0  0  0
    7.1987   -2.4195    2.2138 H   0  0  0  0  0  0  0  0  0  0  0  0
    9.2273   -3.0045    3.2020 H   0  0  0  0  0  0  0  0  0  0  0  0
   10.5778   -2.2038    2.4135 H   0  0  0  0  0  0  0  0  0  0  0  0
    9.5158   -5.1521    0.9181 H   0  0  0  0  0  0  0  0  0  0  0  0
   10.3938   -6.7686   -0.4817 H   0  0  0  0  0  0  0  0  0  0  0  0
   11.2889  -10.4419    1.0577 H   0  0  0  0  0  0  0  0  0  0  0  0
   11.0741  -10.8587    3.5179 H   0  0  0  0  0  0  0  0  0  0  0  0
   12.2004  -10.0562    5.5680 H   0  0  0  0  0  0  0  0  0  0  0  0
   12.1962   -7.6213    6.0417 H   0  0  0  0  0  0  0  0  0  0  0  0
   11.2076   -6.0591    4.4356 H   0  0  0  0  0  0  0  0  0  0  0  0
   10.6779   -2.6683   -0.3117 H   0  0  0  0  0  0  0  0  0  0  0  0
    9.8833   -0.3012   -6.6067 H   0  0  0  0  0  0  0  0  0  0  0  0
  1  2  1  0  0  0  0
  2  3  2  0  0  0  0
  2 30  1  0  0  0  0
  3  4  1  0  0  0  0
  3 31  1  0  0  0  0
  4  5  1  0  0  0  0
  4  6  2  0  0  0  0
  6  7  1  0  0  0  0
  6 29  1  0  0  0  0
  7  8  1  0  0  0  0
  7 32  1  0  0  0  0
  8  9  2  0  0  0  0
  8 28  1  0  0  0  0
  9 10  1  0  0  0  0
  9 33  1  0  0  0  0
 10 11  1  0  0  0  0
 10 12  2  0  0  0  0
 12 13  1  0  0  0  0
 12 34  1  0  0  0  0
 13 14  1  0  0  0  0
 13 28  2  0  0  0  0
 14 15  1  0  0  0  0
 14 35  1  0  0  0  0
 14 36  1  0  0  0  0
 15 16  2  0  0  0  0
 15 17  1  0  0  0  0
 17 18  1  0  0  0  0
 17 37  1  0  0  0  0
 18 19  2  0  0  0  0
 18 27  1  0  0  0  0
 19 20  1  0  0  0  0
 19 38  1  0  0  0  0
 20 21  2  0  0  0  0
 21 22  1  0  0  0  0
 21 39  1  0  0  0  0
 22 23  2  0  0  0  0
 22 27  1  0  0  0  0
 23 24  1  0  0  0  0
 23 40  1  0  0  0  0
 24 25  2  0  0  0  0
 24 41  1  0  0  0  0
 25 26  1  0  0  0  0
 25 42  1  0  0  0  0
 26 27  2  0  0  0  0
 26 43  1  0  0  0  0
 28 44  1  0  0  0  0
 29 30  2  0  0  0  0
 30 45  1  0  0  0  0
M  END
$$$$
