
 OpenBabel07202414153D

 37 38  0  0  0  0  0  0  0  0999 V2000
    0.8918    0.6005   -0.2454 C   0  0  0  0  0  0  0  0  0  0  0  0
    2.1899    0.1167    0.0704 O   0  0  0  0  0  0  0  0  0  0  0  0
    3.0454   -0.1399   -0.9673 C   0  0  0  0  0  0  0  0  0  0  0  0
    2.9115    0.4910   -2.2143 C   0  0  0  0  0  0  0  0  0  0  0  0
    3.8243    0.2520   -3.2431 C   0  0  0  0  0  0  0  0  0  0  0  0
    4.8889   -0.6157   -3.0362 C   0  0  0  0  0  0  0  0  0  0  0  0
    5.0354   -1.2463   -1.8011 C   0  0  0  0  0  0  0  0  0  0  0  0
    4.1244   -1.0217   -0.7570 C   0  0  0  0  0  0  0  0  0  0  0  0
    4.4334   -1.7430    0.3730 O   0  0  0  0  0  0  0  0  0  0  0  0
    3.5669   -1.6256    1.4983 C   0  0  0  0  0  0  0  0  0  0  0  0
    4.0402   -2.5485    2.6223 C   0  0  0  0  0  0  0  0  0  0  0  0
    3.1597   -2.4833    3.7803 N   0  0  0  0  0  0  0  0  0  0  0  0
    3.3150   -1.5170    4.7452 C   0  0  0  0  0  0  0  0  0  0  0  0
    4.2222   -0.6869    4.7406 O   0  0  0  0  0  0  0  0  0  0  0  0
    2.2463   -1.4454    5.8103 C   0  0  0  0  0  0  0  0  0  0  0  0
    1.4544   -2.4884    6.1072 C   0  0  0  0  0  0  0  0  0  0  0  0
    0.4556   -2.3212    7.1921 C   0  0  0  0  0  0  0  0  0  0  0  0
   -0.3208   -3.2288    7.4689 O   0  0  0  0  0  0  0  0  0  0  0  0
    0.4270   -1.0347    7.9336 C   0  0  0  0  0  0  0  0  0  0  0  0
    1.2892   -0.0845    7.5538 C   0  0  0  0  0  0  0  0  0  0  0  0
    2.1579   -0.2566    6.5142 N   0  0  0  0  0  0  0  0  0  0  0  0
    0.3044    0.5932    0.6782 H   0  0  0  0  0  0  0  0  0  0  0  0
    0.3907   -0.0533   -0.9664 H   0  0  0  0  0  0  0  0  0  0  0  0
    0.9302    1.6343   -0.6005 H   0  0  0  0  0  0  0  0  0  0  0  0
    2.1118    1.1974   -2.4100 H   0  0  0  0  0  0  0  0  0  0  0  0
    3.7066    0.7539   -4.2000 H   0  0  0  0  0  0  0  0  0  0  0  0
    5.6080   -0.7973   -3.8305 H   0  0  0  0  0  0  0  0  0  0  0  0
    5.8743   -1.9211   -1.6452 H   0  0  0  0  0  0  0  0  0  0  0  0
    2.5520   -1.9361    1.2211 H   0  0  0  0  0  0  0  0  0  0  0  0
    3.5695   -0.5953    1.8703 H   0  0  0  0  0  0  0  0  0  0  0  0
    5.0634   -2.2932    2.9190 H   0  0  0  0  0  0  0  0  0  0  0  0
    4.0534   -3.5889    2.2787 H   0  0  0  0  0  0  0  0  0  0  0  0
    2.2868   -2.9872    3.7166 H   0  0  0  0  0  0  0  0  0  0  0  0
    1.4908   -3.4590    5.6351 H   0  0  0  0  0  0  0  0  0  0  0  0
   -0.2768   -0.9273    8.7460 H   0  0  0  0  0  0  0  0  0  0  0  0
    1.3453    0.8789    8.0504 H   0  0  0  0  0  0  0  0  0  0  0  0
    2.8898    0.4302    6.3273 H   0  0  0  0  0  0  0  0  0  0  0  0
  1  2  1  0  0  0  0
  1 22  1  0  0  0  0
  1 23  1  0  0  0  0
  1 24  1  0  0  0  0
  2  3  1  0  0  0  0
  3  4  1  0  0  0  0
  3  8  2  0  0  0  0
  4  5  2  0  0  0  0
  4 25  1  0  0  0  0
  5  6  1  0  0  0  0
  5 26  1  0  0  0  0
  6  7  2  0  0  0  0
  6 27  1  0  0  0  0
  7  8  1  0  0  0  0
  7 28  1  0  0  0  0
  8  9  1  0  0  0  0
  9 10  1  0  0  0  0
 10 11  1  0  0  0  0
 10 29  1  0  0  0  0
 10 30  1  0  0  0  0
 11 12  1  0  0  0  0
 11 31  1  0  0  0  0
 11 32  1  0  0  0  0
 12 13  1  0  0  0  0
 12 33  1  0  0  0  0
 13 14  2  0  0  0  0
 13 15  1  0  0  0  0
 15 16  2  0  0  0  0
 15 21  1  0  0  0  0
 16 17  1  0  0  0  0
 16 34  1  0  0  0  0
 17 18  2  0  0  0  0
 17 19  1  0  0  0  0
 19 20  2  0  0  0  0
 19 35  1  0  0  0  0
 20 21  1  0  0  0  0
 20 36  1  0  0  0  0
 21 37  1  0  0  0  0
M  END
$$$$
