
 OpenBabel07202414113D

 30 31  0  0  0  0  0  0  0  0999 V2000
    1.2311    4.9289    0.3480 C   0  0  0  0  0  0  0  0  0  0  0  0
    2.7008    4.7507    0.6147 C   0  0  0  0  0  0  0  0  0  0  0  0
    3.2878    5.3567    1.5031 O   0  0  0  0  0  0  0  0  0  0  0  0
    3.3110    3.8612   -0.2432 N   0  0  0  0  0  0  0  0  0  0  0  0
    4.7523    3.6844   -0.2371 C   0  0  0  0  0  0  0  0  0  0  0  0
    5.2558    2.6765    0.8084 C   0  0  0  0  0  0  0  0  0  0  0  0
    6.7574    2.5683    0.8359 C   0  0  0  0  0  0  0  0  0  0  0  0
    7.6507    3.6056    0.6308 C   0  0  0  0  0  0  0  0  0  0  0  0
    8.9237    3.1172    0.7111 N   0  0  0  0  0  0  0  0  0  0  0  0
    8.8958    1.7742    0.9964 C   0  0  0  0  0  0  0  0  0  0  0  0
    7.5535    1.3994    1.1043 C   0  0  0  0  0  0  0  0  0  0  0  0
    7.2634    0.0540    1.4280 C   0  0  0  0  0  0  0  0  0  0  0  0
    8.3232   -0.8422    1.6065 C   0  0  0  0  0  0  0  0  0  0  0  0
    9.6466   -0.4435    1.4764 C   0  0  0  0  0  0  0  0  0  0  0  0
    9.9598    0.8801    1.1703 C   0  0  0  0  0  0  0  0  0  0  0  0
    8.0979   -2.1533    1.9157 O   0  0  0  0  0  0  0  0  0  0  0  0
    0.8046    5.6102    1.0900 H   0  0  0  0  0  0  0  0  0  0  0  0
    0.7186    3.9660    0.4181 H   0  0  0  0  0  0  0  0  0  0  0  0
    1.0848    5.3576   -0.6474 H   0  0  0  0  0  0  0  0  0  0  0  0
    2.7863    3.5035   -1.0306 H   0  0  0  0  0  0  0  0  0  0  0  0
    5.2013    4.6708   -0.0726 H   0  0  0  0  0  0  0  0  0  0  0  0
    5.0388    3.3584   -1.2433 H   0  0  0  0  0  0  0  0  0  0  0  0
    4.8206    1.6950    0.5875 H   0  0  0  0  0  0  0  0  0  0  0  0
    4.9024    2.9565    1.8080 H   0  0  0  0  0  0  0  0  0  0  0  0
    7.4890    4.6569    0.4273 H   0  0  0  0  0  0  0  0  0  0  0  0
    9.7657    3.6601    0.5911 H   0  0  0  0  0  0  0  0  0  0  0  0
    6.2333   -0.2635    1.5400 H   0  0  0  0  0  0  0  0  0  0  0  0
   10.4448   -1.1673    1.6185 H   0  0  0  0  0  0  0  0  0  0  0  0
   10.9917    1.1991    1.0731 H   0  0  0  0  0  0  0  0  0  0  0  0
    7.1397   -2.2910    1.9777 H   0  0  0  0  0  0  0  0  0  0  0  0
  1  2  1  0  0  0  0
  1 17  1  0  0  0  0
  1 18  1  0  0  0  0
  1 19  1  0  0  0  0
  2  3  2  0  0  0  0
  2  4  1  0  0  0  0
  4  5  1  0  0  0  0
  4 20  1  0  0  0  0
  5  6  1  0  0  0  0
  5 21  1  0  0  0  0
  5 22  1  0  0  0  0
  6  7  1  0  0  0  0
  6 23  1  0  0  0  0
  6 24  1  0  0  0  0
  7  8  2  0  0  0  0
  7 11  1  0  0  0  0
  8  9  1  0  0  0  0
  8 25  1  0  0  0  0
  9 10  1  0  0  0  0
  9 26  1  0  0  0  0
 10 11  1  0  0  0  0
 10 15  2  0  0  0  0
 11 12  2  0  0  0  0
 12 13  1  0  0  0  0
 12 27  1  0  0  0  0
 13 14  2  0  0  0  0
 13 16  1  0  0  0  0
 14 15  1  0  0  0  0
 14 28  1  0  0  0  0
 15 29  1  0  0  0  0
 16 30  1  0  0  0  0
M  END
$$$$
