
 OpenBabel07202414183D

 33 35  0  0  0  0  0  0  0  0999 V2000
   -0.9555   -4.9295   -2.9854 Cl  0  0  0  0  0  0  0  0  0  0  0  0
    0.4602   -3.9583   -2.8912 C   0  0  0  0  0  0  0  0  0  0  0  0
    1.0724   -3.5118   -4.0616 C   0  0  0  0  0  0  0  0  0  0  0  0
    2.2064   -2.7040   -3.9769 C   0  0  0  0  0  0  0  0  0  0  0  0
    2.7354   -2.3571   -2.7270 C   0  0  0  0  0  0  0  0  0  0  0  0
    2.1391   -2.8212   -1.5456 C   0  0  0  0  0  0  0  0  0  0  0  0
    2.6199   -2.4249   -0.1675 C   0  0  0  0  0  0  0  0  0  0  0  0
    4.0908   -2.0851   -0.0435 C   0  0  0  0  0  0  0  0  0  0  0  0
    4.4702   -0.9187    0.0369 O   0  0  0  0  0  0  0  0  0  0  0  0
    4.9337   -3.1869   -0.0590 N   0  0  0  0  0  0  0  0  0  0  0  0
    6.3394   -3.0340    0.0368 C   0  0  0  0  0  0  0  0  0  0  0  0
    6.9045   -2.1705    0.9796 C   0  0  0  0  0  0  0  0  0  0  0  0
    8.2303   -1.9434    1.1179 N   0  0  0  0  0  0  0  0  0  0  0  0
    9.0411   -2.5809    0.2459 C   0  0  0  0  0  0  0  0  0  0  0  0
    8.5999   -3.4680   -0.7370 C   0  0  0  0  0  0  0  0  0  0  0  0
    9.4913   -4.0668   -1.6385 C   0  0  0  0  0  0  0  0  0  0  0  0
    8.9830   -4.9190   -2.6022 C   0  0  0  0  0  0  0  0  0  0  0  0
    7.6781   -5.2181   -2.7195 N   0  0  0  0  0  0  0  0  0  0  0  0
    6.8336   -4.6178   -1.8435 C   0  0  0  0  0  0  0  0  0  0  0  0
    7.2194   -3.7273   -0.8265 C   0  0  0  0  0  0  0  0  0  0  0  0
    0.9847   -3.6176   -1.6450 C   0  0  0  0  0  0  0  0  0  0  0  0
    0.6626   -3.7718   -5.0329 H   0  0  0  0  0  0  0  0  0  0  0  0
    2.6753   -2.3341   -4.8864 H   0  0  0  0  0  0  0  0  0  0  0  0
    3.5972   -1.6911   -2.6988 H   0  0  0  0  0  0  0  0  0  0  0  0
    2.4097   -3.2312    0.5476 H   0  0  0  0  0  0  0  0  0  0  0  0
    2.0474   -1.5479    0.1620 H   0  0  0  0  0  0  0  0  0  0  0  0
    4.5692   -4.0157   -0.5107 H   0  0  0  0  0  0  0  0  0  0  0  0
    6.2864   -1.6301    1.6935 H   0  0  0  0  0  0  0  0  0  0  0  0
   10.0947   -2.3376    0.3601 H   0  0  0  0  0  0  0  0  0  0  0  0
   10.5558   -3.8602   -1.6085 H   0  0  0  0  0  0  0  0  0  0  0  0
    9.6352   -5.3919   -3.3327 H   0  0  0  0  0  0  0  0  0  0  0  0
    5.7930   -4.8763   -2.0130 H   0  0  0  0  0  0  0  0  0  0  0  0
    0.4787   -3.9613   -0.7450 H   0  0  0  0  0  0  0  0  0  0  0  0
  1  2  1  0  0  0  0
  2  3  1  0  0  0  0
  2 21  2  0  0  0  0
  3  4  2  0  0  0  0
  3 22  1  0  0  0  0
  4  5  1  0  0  0  0
  4 23  1  0  0  0  0
  5  6  2  0  0  0  0
  5 24  1  0  0  0  0
  6  7  1  0  0  0  0
  6 21  1  0  0  0  0
  7  8  1  0  0  0  0
  7 25  1  0  0  0  0
  7 26  1  0  0  0  0
  8  9  2  0  0  0  0
  8 10  1  0  0  0  0
 10 11  1  0  0  0  0
 10 27  1  0  0  0  0
 11 12  1  0  0  0  0
 11 20  2  0  0  0  0
 12 13  2  0  0  0  0
 12 28  1  0  0  0  0
 13 14  1  0  0  0  0
 14 15  2  0  0  0  0
 14 29  1  0  0  0  0
 15 16  1  0  0  0  0
 15 20  1  0  0  0  0
 16 17  2  0  0  0  0
 16 30  1  0  0  0  0
 17 18  1  0  0  0  0
 17 31  1  0  0  0  0
 18 19  2  0  0  0  0
 19 20  1  0  0  0  0
 19 32  1  0  0  0  0
 21 33  1  0  0  0  0
M  END
$$$$
