
 OpenBabel07202414163D

 40 42  0  0  0  0  0  0  0  0999 V2000
   -4.5023   -1.0337   -0.4961 C   0  0  0  0  0  0  0  0  0  0  0  0
   -3.1141   -0.9115   -1.0585 C   0  0  0  0  0  0  0  0  0  0  0  0
   -2.5021   -2.0815   -1.5437 C   0  0  0  0  0  0  0  0  0  0  0  0
   -1.2287   -2.0075   -2.0800 C   0  0  0  0  0  0  0  0  0  0  0  0
   -0.5347   -0.8620   -2.1838 N   0  0  0  0  0  0  0  0  0  0  0  0
   -1.1371    0.2604   -1.7139 C   0  0  0  0  0  0  0  0  0  0  0  0
   -2.4098    0.3052   -1.1389 C   0  0  0  0  0  0  0  0  0  0  0  0
   -3.0022    1.5019   -0.6558 N   0  0  0  0  0  0  0  0  0  0  0  0
   -2.3523    2.7022   -0.4237 C   0  0  0  0  0  0  0  0  0  0  0  0
   -1.1431    2.8798   -0.5739 O   0  0  0  0  0  0  0  0  0  0  0  0
   -3.1947    3.8600    0.0945 C   0  0  0  0  0  0  0  0  0  0  0  0
   -4.6877    3.6508    0.1716 C   0  0  0  0  0  0  0  0  0  0  0  0
   -5.4962    3.9780   -0.9265 C   0  0  0  0  0  0  0  0  0  0  0  0
   -6.8711    3.7614   -0.8688 C   0  0  0  0  0  0  0  0  0  0  0  0
   -7.8548    4.1711   -2.2186 Cl  0  0  0  0  0  0  0  0  0  0  0  0
   -7.4490    3.2069    0.2679 C   0  0  0  0  0  0  0  0  0  0  0  0
   -6.6532    2.8654    1.3618 C   0  0  0  0  0  0  0  0  0  0  0  0
   -7.3282    2.3280    2.4292 O   0  0  0  0  0  0  0  0  0  0  0  0
   -6.6055    1.4971    3.3641 C   0  0  0  0  0  0  0  0  0  0  0  0
   -6.1017    0.1295    2.8780 C   0  0  0  0  0  0  0  0  0  0  0  0
   -6.6488   -0.5257    4.0502 O   0  0  0  0  0  0  0  0  0  0  0  0
   -7.4724    0.6435    4.3040 C   0  0  0  0  0  0  0  0  0  0  0  0
   -5.2779    3.1012    1.3239 C   0  0  0  0  0  0  0  0  0  0  0  0
   -4.7220   -2.0674   -0.2040 H   0  0  0  0  0  0  0  0  0  0  0  0
   -5.2416   -0.7232   -1.2406 H   0  0  0  0  0  0  0  0  0  0  0  0
   -4.6140   -0.4288    0.4061 H   0  0  0  0  0  0  0  0  0  0  0  0
   -3.0039   -3.0423   -1.4973 H   0  0  0  0  0  0  0  0  0  0  0  0
   -0.7216   -2.8934   -2.4506 H   0  0  0  0  0  0  0  0  0  0  0  0
   -0.5333    1.1506   -1.8568 H   0  0  0  0  0  0  0  0  0  0  0  0
   -3.9769    1.4426   -0.3988 H   0  0  0  0  0  0  0  0  0  0  0  0
   -2.9912    4.7222   -0.5554 H   0  0  0  0  0  0  0  0  0  0  0  0
   -2.8152    4.1273    1.0885 H   0  0  0  0  0  0  0  0  0  0  0  0
   -5.0559    4.4105   -1.8238 H   0  0  0  0  0  0  0  0  0  0  0  0
   -8.5225    3.0355    0.3088 H   0  0  0  0  0  0  0  0  0  0  0  0
   -5.8586    2.0714    3.9288 H   0  0  0  0  0  0  0  0  0  0  0  0
   -5.0148    0.0245    2.8203 H   0  0  0  0  0  0  0  0  0  0  0  0
   -6.5644   -0.2554    1.9637 H   0  0  0  0  0  0  0  0  0  0  0  0
   -7.4536    0.9374    5.3569 H   0  0  0  0  0  0  0  0  0  0  0  0
   -8.5045    0.4741    3.9814 H   0  0  0  0  0  0  0  0  0  0  0  0
   -4.6495    2.8802    2.1831 H   0  0  0  0  0  0  0  0  0  0  0  0
  1  2  1  0  0  0  0
  1 24  1  0  0  0  0
  1 25  1  0  0  0  0
  1 26  1  0  0  0  0
  2  3  1  0  0  0  0
  2  7  2  0  0  0  0
  3  4  2  0  0  0  0
  3 27  1  0  0  0  0
  4  5  1  0  0  0  0
  4 28  1  0  0  0  0
  5  6  2  0  0  0  0
  6  7  1  0  0  0  0
  6 29  1  0  0  0  0
  7  8  1  0  0  0  0
  8  9  1  0  0  0  0
  8 30  1  0  0  0  0
  9 10  2  0  0  0  0
  9 11  1  0  0  0  0
 11 12  1  0  0  0  0
 11 31  1  0  0  0  0
 11 32  1  0  0  0  0
 12 13  1  0  0  0  0
 12 23  2  0  0  0  0
 13 14  2  0  0  0  0
 13 33  1  0  0  0  0
 14 15  1  0  0  0  0
 14 16  1  0  0  0  0
 16 17  2  0  0  0  0
 16 34  1  0  0  0  0
 17 18  1  0  0  0  0
 17 23  1  0  0  0  0
 18 19  1  0  0  0  0
 19 20  1  0  0  0  0
 19 22  1  0  0  0  0
 19 35  1  0  0  0  0
 20 21  1  0  0  0  0
 20 36  1  0  0  0  0
 20 37  1  0  0  0  0
 21 22  1  0  0  0  0
 22 38  1  0  0  0  0
 22 39  1  0  0  0  0
 23 40  1  0  0  0  0
M  END
$$$$
