
 OpenBabel07202414153D

 43 46  0  0  1  0  0  0  0  0999 V2000
    1.3516   -0.7382    0.1376 C   0  0  0  0  0  0  0  0  0  0  0  0
    2.4578    0.1494    0.0349 O   0  0  0  0  0  0  0  0  0  0  0  0
    3.0904    0.5036    1.2000 C   0  0  0  0  0  0  0  0  0  0  0  0
    2.6355    0.1683    2.4778 C   0  0  0  0  0  0  0  0  0  0  0  0
    3.3397    0.5965    3.6011 C   0  0  0  0  0  0  0  0  0  0  0  0
    4.5082    1.3418    3.4682 C   0  0  0  0  0  0  0  0  0  0  0  0
    5.0052    1.6561    2.1944 C   0  0  0  0  0  0  0  0  0  0  0  0
    4.2642    1.2716    1.0645 C   0  0  0  0  0  0  0  0  0  0  0  0
    4.6597    1.5940   -0.2129 O   0  0  0  0  0  0  0  0  0  0  0  0
    5.5532    2.7056   -0.3034 C   0  0  0  0  0  0  0  0  0  0  0  0
    6.7579    2.4969    0.5971 C   0  0  0  0  0  0  0  0  0  0  0  0
    6.2661    2.4740    2.0405 C   0  0  2  0  0  0  0  0  0  0  0  0
    7.3716    2.1221    3.0409 C   0  0  0  0  0  0  0  0  0  0  0  0
    7.6131    2.9313    3.9358 O   0  0  0  0  0  0  0  0  0  0  0  0
    8.0124    0.8988    2.8881 N   0  0  0  0  0  0  0  0  0  0  0  0
    9.0727    0.4194    3.7260 C   0  0  0  0  0  0  0  0  0  0  0  0
    9.3629    1.0191    4.9582 C   0  0  0  0  0  0  0  0  0  0  0  0
   10.4329    0.7356    5.7364 N   0  0  0  0  0  0  0  0  0  0  0  0
   11.2667   -0.2129    5.2775 C   0  0  0  0  0  0  0  0  0  0  0  0
   11.0497   -0.9584    4.1232 C   0  0  0  0  0  0  0  0  0  0  0  0
    9.9037   -0.6739    3.3319 C   0  0  0  0  0  0  0  0  0  0  0  0
    9.6918   -1.5182    2.2133 C   0  0  0  0  0  0  0  0  0  0  0  0
   10.5763   -2.5664    1.9010 C   0  0  0  0  0  0  0  0  0  0  0  0
   11.7114   -2.7840    2.6690 C   0  0  0  0  0  0  0  0  0  0  0  0
   11.9512   -1.9766    3.7730 C   0  0  0  0  0  0  0  0  0  0  0  0
    2.7621    0.1951    5.1721 Cl  0  0  0  0  0  0  0  0  0  0  0  0
    1.0216   -0.9833   -0.8763 H   0  0  0  0  0  0  0  0  0  0  0  0
    0.5123   -0.2619    0.6551 H   0  0  0  0  0  0  0  0  0  0  0  0
    1.6388   -1.6744    0.6282 H   0  0  0  0  0  0  0  0  0  0  0  0
    1.7314   -0.4112    2.6271 H   0  0  0  0  0  0  0  0  0  0  0  0
    5.0261    1.6816    4.3641 H   0  0  0  0  0  0  0  0  0  0  0  0
    5.0145    3.6316   -0.0672 H   0  0  0  0  0  0  0  0  0  0  0  0
    5.8773    2.7792   -1.3474 H   0  0  0  0  0  0  0  0  0  0  0  0
    7.4928    3.2977    0.4551 H   0  0  0  0  0  0  0  0  0  0  0  0
    7.2465    1.5528    0.3339 H   0  0  0  0  0  0  0  0  0  0  0  0
    5.9717    3.5089    2.2817 H   0  0  0  0  0  0  0  0  0  0  0  0
    7.8317    0.3793    2.0398 H   0  0  0  0  0  0  0  0  0  0  0  0
    8.7174    1.7655    5.4079 H   0  0  0  0  0  0  0  0  0  0  0  0
   12.1404   -0.3747    5.9044 H   0  0  0  0  0  0  0  0  0  0  0  0
    8.8122   -1.4108    1.5849 H   0  0  0  0  0  0  0  0  0  0  0  0
   10.3658   -3.2217    1.0577 H   0  0  0  0  0  0  0  0  0  0  0  0
   12.4005   -3.5870    2.4209 H   0  0  0  0  0  0  0  0  0  0  0  0
   12.8414   -2.1581    4.3735 H   0  0  0  0  0  0  0  0  0  0  0  0
  1  2  1  0  0  0  0
  1 27  1  0  0  0  0
  1 28  1  0  0  0  0
  1 29  1  0  0  0  0
  2  3  1  0  0  0  0
  3  4  1  0  0  0  0
  3  8  2  0  0  0  0
  4  5  2  0  0  0  0
  4 30  1  0  0  0  0
  5  6  1  0  0  0  0
  5 26  1  0  0  0  0
  6  7  2  0  0  0  0
  6 31  1  0  0  0  0
  7  8  1  0  0  0  0
  7 12  1  0  0  0  0
  8  9  1  0  0  0  0
  9 10  1  0  0  0  0
 10 11  1  0  0  0  0
 10 32  1  0  0  0  0
 10 33  1  0  0  0  0
 11 12  1  0  0  0  0
 11 34  1  0  0  0  0
 11 35  1  0  0  0  0
 12 13  1  0  0  0  0
 12 36  1  1  0  0  0
 13 14  2  0  0  0  0
 13 15  1  0  0  0  0
 15 16  1  0  0  0  0
 15 37  1  0  0  0  0
 16 17  1  0  0  0  0
 16 21  2  0  0  0  0
 17 18  2  0  0  0  0
 17 38  1  0  0  0  0
 18 19  1  0  0  0  0
 19 20  2  0  0  0  0
 19 39  1  0  0  0  0
 20 21  1  0  0  0  0
 20 25  1  0  0  0  0
 21 22  1  0  0  0  0
 22 23  2  0  0  0  0
 22 40  1  0  0  0  0
 23 24  1  0  0  0  0
 23 41  1  0  0  0  0
 24 25  2  0  0  0  0
 24 42  1  0  0  0  0
 25 43  1  0  0  0  0
M  END
$$$$
