
 OpenBabel07202414123D

 67 70  0  0  1  0  0  0  0  0999 V2000
    6.9483   -6.8270    5.3016 C   0  0  0  0  0  0  0  0  0  0  0  0
    5.4418   -6.8037    4.9605 C   0  0  0  0  0  0  0  0  0  0  0  0
    4.7833   -7.9673    5.7342 C   0  0  0  0  0  0  0  0  0  0  0  0
    4.8696   -5.4650    5.4706 C   0  0  0  0  0  0  0  0  0  0  0  0
    5.1491   -6.9432    3.4570 C   0  0  0  0  0  0  0  0  0  0  0  0
    6.1676   -7.0288    2.4925 C   0  0  0  0  0  0  0  0  0  0  0  0
    5.8721   -7.1746    1.1343 C   0  0  0  0  0  0  0  0  0  0  0  0
    4.5453   -7.2519    0.7118 C   0  0  0  0  0  0  0  0  0  0  0  0
    4.2592   -7.4458   -0.6617 N   0  0  0  0  0  0  0  0  0  0  0  0
    3.4395   -6.4266   -1.3905 C   0  0  2  0  0  0  0  0  0  0  0  0
    4.0520   -6.0870   -2.7908 C   0  0  0  0  0  0  0  0  0  0  0  0
    3.4200   -5.4567   -3.6397 O   0  0  0  0  0  0  0  0  0  0  0  0
    5.3834   -6.4280   -2.9701 N   0  0  0  0  0  0  0  0  0  0  0  0
    6.0201   -6.3166   -4.2669 C   0  0  0  0  0  0  0  0  0  0  0  0
    6.3738   -4.8669   -4.5788 C   0  0  0  0  0  0  0  0  0  0  0  0
    7.1045   -4.7056   -5.8838 C   0  0  0  0  0  0  0  0  0  0  0  0
    6.3890   -4.5607   -7.0804 C   0  0  0  0  0  0  0  0  0  0  0  0
    7.0614   -4.3390   -8.2837 C   0  0  0  0  0  0  0  0  0  0  0  0
    8.4540   -4.2721   -8.3002 C   0  0  0  0  0  0  0  0  0  0  0  0
    9.1607   -4.4519   -7.1191 C   0  0  0  0  0  0  0  0  0  0  0  0
   10.4997   -4.3944   -7.1365 F   0  0  0  0  0  0  0  0  0  0  0  0
    8.5046   -4.6722   -5.9144 C   0  0  0  0  0  0  0  0  0  0  0  0
    3.2006   -5.1082   -0.6550 C   0  0  0  0  0  0  0  0  0  0  0  0
    4.2510   -4.2693   -0.2472 C   0  0  0  0  0  0  0  0  0  0  0  0
    3.9783   -3.1169    0.4846 C   0  0  0  0  0  0  0  0  0  0  0  0
    2.6571   -2.8184    0.7665 C   0  0  0  0  0  0  0  0  0  0  0  0
    1.6149   -3.5776    0.3634 N   0  0  0  0  0  0  0  0  0  0  0  0
    1.9080   -4.6942   -0.3441 C   0  0  0  0  0  0  0  0  0  0  0  0
    4.3695   -8.7300   -1.2636 C   0  0  0  0  0  0  0  0  0  0  0  0
    3.8712   -8.9149   -2.3769 O   0  0  0  0  0  0  0  0  0  0  0  0
    5.1772   -9.7670   -0.6311 C   0  0  0  0  0  0  0  0  0  0  0  0
    5.3451  -10.2251    0.6650 C   0  0  0  0  0  0  0  0  0  0  0  0
    6.3474  -11.2245    0.6332 C   0  0  0  0  0  0  0  0  0  0  0  0
    6.6963  -11.3687   -0.6859 C   0  0  0  0  0  0  0  0  0  0  0  0
    5.9967  -10.5004   -1.4577 O   0  0  0  0  0  0  0  0  0  0  0  0
    3.5157   -7.1462    1.6477 C   0  0  0  0  0  0  0  0  0  0  0  0
    3.8174   -6.9880    3.0014 C   0  0  0  0  0  0  0  0  0  0  0  0
    7.1103   -6.7649    6.3841 H   0  0  0  0  0  0  0  0  0  0  0  0
    7.4768   -5.9807    4.8474 H   0  0  0  0  0  0  0  0  0  0  0  0
    7.4252   -7.7522    4.9568 H   0  0  0  0  0  0  0  0  0  0  0  0
    5.0251   -7.9175    6.8024 H   0  0  0  0  0  0  0  0  0  0  0  0
    5.1294   -8.9378    5.3590 H   0  0  0  0  0  0  0  0  0  0  0  0
    3.6907   -7.9541    5.6546 H   0  0  0  0  0  0  0  0  0  0  0  0
    5.0820   -5.3250    6.5366 H   0  0  0  0  0  0  0  0  0  0  0  0
    3.7822   -5.4066    5.3485 H   0  0  0  0  0  0  0  0  0  0  0  0
    5.3055   -4.6179    4.9278 H   0  0  0  0  0  0  0  0  0  0  0  0
    7.2172   -6.9933    2.7705 H   0  0  0  0  0  0  0  0  0  0  0  0
    6.6878   -7.2421    0.4190 H   0  0  0  0  0  0  0  0  0  0  0  0
    2.4727   -6.9067   -1.6015 H   0  0  0  0  0  0  0  0  0  0  0  0
    5.7956   -7.0686   -2.3074 H   0  0  0  0  0  0  0  0  0  0  0  0
    5.3516   -6.7399   -5.0249 H   0  0  0  0  0  0  0  0  0  0  0  0
    6.9223   -6.9383   -4.2337 H   0  0  0  0  0  0  0  0  0  0  0  0
    6.9854   -4.4557   -3.7645 H   0  0  0  0  0  0  0  0  0  0  0  0
    5.4705   -4.2443   -4.5997 H   0  0  0  0  0  0  0  0  0  0  0  0
    5.3006   -4.5980   -7.0760 H   0  0  0  0  0  0  0  0  0  0  0  0
    6.4977   -4.2075   -9.2037 H   0  0  0  0  0  0  0  0  0  0  0  0
    8.9882   -4.0792   -9.2249 H   0  0  0  0  0  0  0  0  0  0  0  0
    9.0889   -4.7998   -5.0102 H   0  0  0  0  0  0  0  0  0  0  0  0
    5.2836   -4.5244   -0.4677 H   0  0  0  0  0  0  0  0  0  0  0  0
    4.7776   -2.4749    0.8372 H   0  0  0  0  0  0  0  0  0  0  0  0
    2.3933   -1.9340    1.3405 H   0  0  0  0  0  0  0  0  0  0  0  0
    1.0360   -5.2683   -0.6479 H   0  0  0  0  0  0  0  0  0  0  0  0
    4.8274   -9.8686    1.5441 H   0  0  0  0  0  0  0  0  0  0  0  0
    6.7528  -11.7777    1.4686 H   0  0  0  0  0  0  0  0  0  0  0  0
    7.3913  -12.0095   -1.2115 H   0  0  0  0  0  0  0  0  0  0  0  0
    2.4728   -7.1945    1.3454 H   0  0  0  0  0  0  0  0  0  0  0  0
    2.9878   -6.9026    3.7010 H   0  0  0  0  0  0  0  0  0  0  0  0
  1  2  1  0  0  0  0
  1 38  1  0  0  0  0
  1 39  1  0  0  0  0
  1 40  1  0  0  0  0
  2  3  1  0  0  0  0
  2  4  1  0  0  0  0
  2  5  1  0  0  0  0
  3 41  1  0  0  0  0
  3 42  1  0  0  0  0
  3 43  1  0  0  0  0
  4 44  1  0  0  0  0
  4 45  1  0  0  0  0
  4 46  1  0  0  0  0
  5  6  1  0  0  0  0
  5 37  2  0  0  0  0
  6  7  2  0  0  0  0
  6 47  1  0  0  0  0
  7  8  1  0  0  0  0
  7 48  1  0  0  0  0
  8  9  1  0  0  0  0
  8 36  2  0  0  0  0
  9 29  1  0  0  0  0
 10 23  1  0  0  0  0
 10 11  1  0  0  0  0
 10  9  1  0  0  0  0
 10 49  1  6  0  0  0
 11 12  2  0  0  0  0
 11 13  1  0  0  0  0
 13 14  1  0  0  0  0
 13 50  1  0  0  0  0
 14 15  1  0  0  0  0
 14 51  1  0  0  0  0
 14 52  1  0  0  0  0
 15 16  1  0  0  0  0
 15 53  1  0  0  0  0
 15 54  1  0  0  0  0
 16 17  1  0  0  0  0
 16 22  2  0  0  0  0
 17 18  2  0  0  0  0
 17 55  1  0  0  0  0
 18 19  1  0  0  0  0
 18 56  1  0  0  0  0
 19 20  2  0  0  0  0
 19 57  1  0  0  0  0
 20 21  1  0  0  0  0
 20 22  1  0  0  0  0
 22 58  1  0  0  0  0
 23 24  1  0  0  0  0
 23 28  2  0  0  0  0
 24 25  2  0  0  0  0
 24 59  1  0  0  0  0
 25 26  1  0  0  0  0
 25 60  1  0  0  0  0
 26 27  2  0  0  0  0
 26 61  1  0  0  0  0
 27 28  1  0  0  0  0
 28 62  1  0  0  0  0
 29 30  2  0  0  0  0
 29 31  1  0  0  0  0
 31 32  2  0  0  0  0
 31 35  1  0  0  0  0
 32 33  1  0  0  0  0
 32 63  1  0  0  0  0
 33 34  2  0  0  0  0
 33 64  1  0  0  0  0
 34 35  1  0  0  0  0
 34 65  1  0  0  0  0
 36 37  1  0  0  0  0
 36 66  1  0  0  0  0
 37 67  1  0  0  0  0
M  END
$$$$
