
 OpenBabel07202414153D

 53 56  0  0  1  0  0  0  0  0999 V2000
    1.0249    3.1562    0.9758 C   0  0  0  0  0  0  0  0  0  0  0  0
    2.4429    3.0139    0.8995 O   0  0  0  0  0  0  0  0  0  0  0  0
    2.9276    2.1324    1.9099 C   0  0  0  0  0  0  0  0  0  0  0  0
    4.4399    2.0390    1.8201 C   0  0  0  0  0  0  0  0  0  0  0  0
    5.0321    0.9958    3.1506 S   0  0  0  0  0  0  0  0  0  0  0  0
    4.7098    1.6481    4.3981 O   0  0  0  0  0  0  0  0  0  0  0  0
    4.6183   -0.3595    2.8944 O   0  0  0  0  0  0  0  0  0  0  0  0
    6.7237    1.0362    3.0375 N   0  0  0  0  0  0  0  0  0  0  0  0
    7.3912    2.3669    3.1186 C   0  0  0  0  0  0  0  0  0  0  0  0
    8.8781    2.2212    3.4765 C   0  0  3  0  0  0  0  0  0  0  0  0
    9.1397    1.9731    4.9757 C   0  0  0  0  0  0  0  0  0  0  0  0
   10.1484    2.4323    5.5082 O   0  0  0  0  0  0  0  0  0  0  0  0
    8.1950    1.1844    5.6053 N   0  0  0  0  0  0  0  0  0  0  0  0
    8.1994    0.7012    6.9424 C   0  0  0  0  0  0  0  0  0  0  0  0
    9.1604    1.0657    7.8838 C   0  0  0  0  0  0  0  0  0  0  0  0
    9.3127    0.4700    9.0935 N   0  0  0  0  0  0  0  0  0  0  0  0
    8.4132   -0.4837    9.4125 C   0  0  0  0  0  0  0  0  0  0  0  0
    7.3039   -0.8137    8.6376 C   0  0  0  0  0  0  0  0  0  0  0  0
    6.3084   -1.6905    9.1144 C   0  0  0  0  0  0  0  0  0  0  0  0
    5.1941   -1.9964    8.3362 C   0  0  0  0  0  0  0  0  0  0  0  0
    5.0889   -1.4714    7.0585 C   0  0  0  0  0  0  0  0  0  0  0  0
    6.0802   -0.6127    6.5785 C   0  0  0  0  0  0  0  0  0  0  0  0
    7.1995   -0.2281    7.3571 C   0  0  0  0  0  0  0  0  0  0  0  0
    9.5669    1.2129    2.5723 C   0  0  0  0  0  0  0  0  0  0  0  0
   10.9498    1.3081    2.3355 C   0  0  0  0  0  0  0  0  0  0  0  0
   11.5857    0.4058    1.4817 C   0  0  0  0  0  0  0  0  0  0  0  0
   13.2649    0.5780    1.1470 Cl  0  0  0  0  0  0  0  0  0  0  0  0
   10.8659   -0.6200    0.8774 C   0  0  0  0  0  0  0  0  0  0  0  0
    9.4913   -0.7222    1.1016 C   0  0  0  0  0  0  0  0  0  0  0  0
    8.8276    0.2009    1.9299 C   0  0  0  0  0  0  0  0  0  0  0  0
    7.3198    0.1138    2.0379 C   0  0  0  0  0  0  0  0  0  0  0  0
    0.7053    3.8405    0.1855 H   0  0  0  0  0  0  0  0  0  0  0  0
    0.7276    3.5765    1.9421 H   0  0  0  0  0  0  0  0  0  0  0  0
    0.5356    2.1896    0.8209 H   0  0  0  0  0  0  0  0  0  0  0  0
    2.4769    1.1435    1.7785 H   0  0  0  0  0  0  0  0  0  0  0  0
    2.6280    2.5097    2.8960 H   0  0  0  0  0  0  0  0  0  0  0  0
    4.8827    3.0326    1.9296 H   0  0  0  0  0  0  0  0  0  0  0  0
    4.7517    1.6152    0.8614 H   0  0  0  0  0  0  0  0  0  0  0  0
    6.8941    2.9926    3.8672 H   0  0  0  0  0  0  0  0  0  0  0  0
    7.2966    2.8621    2.1446 H   0  0  0  0  0  0  0  0  0  0  0  0
    9.3224    3.2070    3.2736 H   0  0  0  0  0  0  0  0  0  0  0  0
    7.4751    0.8071    5.0000 H   0  0  0  0  0  0  0  0  0  0  0  0
    9.8687    1.8694    7.7114 H   0  0  0  0  0  0  0  0  0  0  0  0
    8.6157   -0.9933   10.3522 H   0  0  0  0  0  0  0  0  0  0  0  0
    6.3779   -2.1107   10.1160 H   0  0  0  0  0  0  0  0  0  0  0  0
    4.4073   -2.6360    8.7256 H   0  0  0  0  0  0  0  0  0  0  0  0
    4.2335   -1.7053    6.4304 H   0  0  0  0  0  0  0  0  0  0  0  0
    5.9299   -0.2230    5.5822 H   0  0  0  0  0  0  0  0  0  0  0  0
   11.5308    2.1013    2.8035 H   0  0  0  0  0  0  0  0  0  0  0  0
   11.3642   -1.3308    0.2224 H   0  0  0  0  0  0  0  0  0  0  0  0
    8.9404   -1.5231    0.6095 H   0  0  0  0  0  0  0  0  0  0  0  0
    7.0706   -0.9093    2.3251 H   0  0  0  0  0  0  0  0  0  0  0  0
    6.8952    0.3290    1.0525 H   0  0  0  0  0  0  0  0  0  0  0  0
  1  2  1  0  0  0  0
  1 32  1  0  0  0  0
  1 33  1  0  0  0  0
  1 34  1  0  0  0  0
  2  3  1  0  0  0  0
  3  4  1  0  0  0  0
  3 35  1  0  0  0  0
  3 36  1  0  0  0  0
  4  5  1  0  0  0  0
  4 37  1  0  0  0  0
  4 38  1  0  0  0  0
  5  6  2  0  0  0  0
  5  7  2  0  0  0  0
  5  8  1  0  0  0  0
  8  9  1  0  0  0  0
  8 31  1  0  0  0  0
  9 10  1  0  0  0  0
  9 39  1  0  0  0  0
  9 40  1  0  0  0  0
 10 11  1  0  0  0  0
 10 24  1  0  0  0  0
 10 41  1  0  0  0  0
 11 12  2  0  0  0  0
 11 13  1  0  0  0  0
 13 14  1  0  0  0  0
 13 42  1  0  0  0  0
 14 15  1  0  0  0  0
 14 23  2  0  0  0  0
 15 16  2  0  0  0  0
 15 43  1  0  0  0  0
 16 17  1  0  0  0  0
 17 18  2  0  0  0  0
 17 44  1  0  0  0  0
 18 19  1  0  0  0  0
 18 23  1  0  0  0  0
 19 20  2  0  0  0  0
 19 45  1  0  0  0  0
 20 21  1  0  0  0  0
 20 46  1  0  0  0  0
 21 22  2  0  0  0  0
 21 47  1  0  0  0  0
 22 23  1  0  0  0  0
 22 48  1  0  0  0  0
 24 25  1  0  0  0  0
 24 30  2  0  0  0  0
 25 26  2  0  0  0  0
 25 49  1  0  0  0  0
 26 27  1  0  0  0  0
 26 28  1  0  0  0  0
 28 29  2  0  0  0  0
 28 50  1  0  0  0  0
 29 30  1  0  0  0  0
 29 51  1  0  0  0  0
 30 31  1  0  0  0  0
 31 52  1  0  0  0  0
 31 53  1  0  0  0  0
M  END
$$$$
