
 OpenBabel07202414123D

 63 66  0  0  1  0  0  0  0  0999 V2000
    6.4541    1.5099   -0.9526 C   0  0  0  0  0  0  0  0  0  0  0  0
    7.2975    0.3591   -1.5438 C   0  0  0  0  0  0  0  0  0  0  0  0
    8.6626    0.9231   -1.9874 C   0  0  0  0  0  0  0  0  0  0  0  0
    7.5510   -0.6755   -0.4312 C   0  0  0  0  0  0  0  0  0  0  0  0
    6.5414   -0.2102   -2.7389 C   0  0  0  0  0  0  0  0  0  0  0  0
    6.2923    0.3986   -3.9561 C   0  0  0  0  0  0  0  0  0  0  0  0
    5.4375   -0.2711   -4.7989 N   0  0  0  0  0  0  0  0  0  0  0  0
    4.9674   -1.3493   -4.2181 C   0  0  0  0  0  0  0  0  0  0  0  0
    3.9020   -2.1374   -4.6816 N   0  0  0  0  0  0  0  0  0  0  0  0
    3.8000   -3.5952   -4.4209 C   0  0  3  0  0  0  0  0  0  0  0  0
    5.1617   -4.3453   -4.4781 C   0  0  0  0  0  0  0  0  0  0  0  0
    5.5969   -5.0302   -3.5551 O   0  0  0  0  0  0  0  0  0  0  0  0
    5.7877   -4.3006   -5.7164 N   0  0  0  0  0  0  0  0  0  0  0  0
    7.0097   -5.0501   -5.9750 C   0  0  0  0  0  0  0  0  0  0  0  0
    6.8156   -6.5694   -5.8598 C   0  0  0  0  0  0  0  0  0  0  0  0
    8.0725   -7.3491   -6.1465 C   0  0  0  0  0  0  0  0  0  0  0  0
    8.9835   -7.6351   -5.1137 C   0  0  0  0  0  0  0  0  0  0  0  0
   10.1275   -8.3943   -5.3661 C   0  0  0  0  0  0  0  0  0  0  0  0
   10.3812   -8.8674   -6.6514 C   0  0  0  0  0  0  0  0  0  0  0  0
    9.4892   -8.5711   -7.6758 C   0  0  0  0  0  0  0  0  0  0  0  0
    9.7302   -9.0295   -8.9112 F   0  0  0  0  0  0  0  0  0  0  0  0
    8.3443   -7.8180   -7.4373 C   0  0  0  0  0  0  0  0  0  0  0  0
    2.8995   -4.0330   -3.2688 C   0  0  0  0  0  0  0  0  0  0  0  0
    2.2217   -3.1472   -2.4239 C   0  0  0  0  0  0  0  0  0  0  0  0
    1.2222   -3.6241   -1.5770 C   0  0  0  0  0  0  0  0  0  0  0  0
    0.9424   -4.9795   -1.5797 C   0  0  0  0  0  0  0  0  0  0  0  0
    1.6113   -5.8780   -2.3284 N   0  0  0  0  0  0  0  0  0  0  0  0
    2.5727   -5.3889   -3.1441 C   0  0  0  0  0  0  0  0  0  0  0  0
    2.9352   -1.4104   -5.4330 C   0  0  0  0  0  0  0  0  0  0  0  0
    3.0477   -0.2099   -5.6881 O   0  0  0  0  0  0  0  0  0  0  0  0
    1.7138   -2.0564   -5.9081 C   0  0  0  0  0  0  0  0  0  0  0  0
    0.8421   -1.6423   -6.9026 C   0  0  0  0  0  0  0  0  0  0  0  0
   -0.2594   -2.5305   -6.8903 C   0  0  0  0  0  0  0  0  0  0  0  0
   -0.0104   -3.4250   -5.8797 C   0  0  0  0  0  0  0  0  0  0  0  0
    1.1778   -3.1487   -5.2914 O   0  0  0  0  0  0  0  0  0  0  0  0
    5.7255   -1.7282   -2.7295 S   0  0  0  0  0  0  0  0  0  0  0  0
    6.9537    1.9688   -0.0930 H   0  0  0  0  0  0  0  0  0  0  0  0
    5.4742    1.1479   -0.6189 H   0  0  0  0  0  0  0  0  0  0  0  0
    6.2741    2.2991   -1.6923 H   0  0  0  0  0  0  0  0  0  0  0  0
    9.2167    1.3293   -1.1324 H   0  0  0  0  0  0  0  0  0  0  0  0
    8.5536    1.7365   -2.7141 H   0  0  0  0  0  0  0  0  0  0  0  0
    9.2840    0.1477   -2.4498 H   0  0  0  0  0  0  0  0  0  0  0  0
    8.1003   -0.2270    0.4048 H   0  0  0  0  0  0  0  0  0  0  0  0
    8.1424   -1.5228   -0.7967 H   0  0  0  0  0  0  0  0  0  0  0  0
    6.6137   -1.0684   -0.0202 H   0  0  0  0  0  0  0  0  0  0  0  0
    6.6641    1.3703   -4.2607 H   0  0  0  0  0  0  0  0  0  0  0  0
    3.3049   -4.0016   -5.3138 H   0  0  0  0  0  0  0  0  0  0  0  0
    5.5652   -3.5314   -6.3399 H   0  0  0  0  0  0  0  0  0  0  0  0
    7.7790   -4.6959   -5.2792 H   0  0  0  0  0  0  0  0  0  0  0  0
    7.3300   -4.7909   -6.9906 H   0  0  0  0  0  0  0  0  0  0  0  0
    6.0169   -6.8946   -6.5387 H   0  0  0  0  0  0  0  0  0  0  0  0
    6.4659   -6.8491   -4.8599 H   0  0  0  0  0  0  0  0  0  0  0  0
    8.7829   -7.2819   -4.1006 H   0  0  0  0  0  0  0  0  0  0  0  0
   10.8127   -8.6271   -4.5542 H   0  0  0  0  0  0  0  0  0  0  0  0
   11.2601   -9.4684   -6.8601 H   0  0  0  0  0  0  0  0  0  0  0  0
    7.6651   -7.6208   -8.2620 H   0  0  0  0  0  0  0  0  0  0  0  0
    2.4071   -2.0774   -2.4565 H   0  0  0  0  0  0  0  0  0  0  0  0
    0.6451   -2.9455   -0.9586 H   0  0  0  0  0  0  0  0  0  0  0  0
    0.1399   -5.3892   -0.9731 H   0  0  0  0  0  0  0  0  0  0  0  0
    3.0652   -6.1503   -3.7469 H   0  0  0  0  0  0  0  0  0  0  0  0
    0.9861   -0.7741   -7.5323 H   0  0  0  0  0  0  0  0  0  0  0  0
   -1.1371   -2.5025   -7.5195 H   0  0  0  0  0  0  0  0  0  0  0  0
   -0.5538   -4.2628   -5.4637 H   0  0  0  0  0  0  0  0  0  0  0  0
  1  2  1  0  0  0  0
  1 37  1  0  0  0  0
  1 38  1  0  0  0  0
  1 39  1  0  0  0  0
  2  3  1  0  0  0  0
  2  4  1  0  0  0  0
  2  5  1  0  0  0  0
  3 40  1  0  0  0  0
  3 41  1  0  0  0  0
  3 42  1  0  0  0  0
  4 43  1  0  0  0  0
  4 44  1  0  0  0  0
  4 45  1  0  0  0  0
  5  6  2  0  0  0  0
  5 36  1  0  0  0  0
  6  7  1  0  0  0  0
  6 46  1  0  0  0  0
  7  8  2  0  0  0  0
  8  9  1  0  0  0  0
  8 36  1  0  0  0  0
  9 10  1  0  0  0  0
  9 29  1  0  0  0  0
 10 11  1  0  0  0  0
 10 23  1  0  0  0  0
 10 47  1  0  0  0  0
 11 12  2  0  0  0  0
 11 13  1  0  0  0  0
 13 14  1  0  0  0  0
 13 48  1  0  0  0  0
 14 15  1  0  0  0  0
 14 49  1  0  0  0  0
 14 50  1  0  0  0  0
 15 16  1  0  0  0  0
 15 51  1  0  0  0  0
 15 52  1  0  0  0  0
 16 17  1  0  0  0  0
 16 22  2  0  0  0  0
 17 18  2  0  0  0  0
 17 53  1  0  0  0  0
 18 19  1  0  0  0  0
 18 54  1  0  0  0  0
 19 20  2  0  0  0  0
 19 55  1  0  0  0  0
 20 21  1  0  0  0  0
 20 22  1  0  0  0  0
 22 56  1  0  0  0  0
 23 24  1  0  0  0  0
 23 28  2  0  0  0  0
 24 25  2  0  0  0  0
 24 57  1  0  0  0  0
 25 26  1  0  0  0  0
 25 58  1  0  0  0  0
 26 27  2  0  0  0  0
 26 59  1  0  0  0  0
 27 28  1  0  0  0  0
 28 60  1  0  0  0  0
 29 30  2  0  0  0  0
 29 31  1  0  0  0  0
 31 32  2  0  0  0  0
 31 35  1  0  0  0  0
 32 33  1  0  0  0  0
 32 61  1  0  0  0  0
 33 34  2  0  0  0  0
 33 62  1  0  0  0  0
 34 35  1  0  0  0  0
 34 63  1  0  0  0  0
M  END
$$$$
