
 OpenBabel07202414143D

 50 53  0  0  0  0  0  0  0  0999 V2000
    3.5065   -0.6357    0.8629 C   0  0  0  0  0  0  0  0  0  0  0  0
    2.7420   -0.2759   -0.2882 O   0  0  0  0  0  0  0  0  0  0  0  0
    1.6166   -1.0376   -0.5217 C   0  0  0  0  0  0  0  0  0  0  0  0
    1.0448   -0.9367   -1.8146 C   0  0  0  0  0  0  0  0  0  0  0  0
    1.6408   -0.1027   -2.7959 N   0  0  0  0  0  0  0  0  0  0  0  0
    1.4337    0.0217   -4.1857 C   0  0  0  0  0  0  0  0  0  0  0  0
    0.9483   -1.0313   -4.9696 C   0  0  0  0  0  0  0  0  0  0  0  0
    0.5997   -0.8368   -6.3045 C   0  0  0  0  0  0  0  0  0  0  0  0
   -0.0666   -2.1396   -7.2107 Cl  0  0  0  0  0  0  0  0  0  0  0  0
    0.7661    0.4047   -6.9061 C   0  0  0  0  0  0  0  0  0  0  0  0
    1.2988    1.4697   -6.1704 C   0  0  0  0  0  0  0  0  0  0  0  0
    1.4521    2.8215   -6.8261 C   0  0  0  0  0  0  0  0  0  0  0  0
    2.8420    3.4231   -6.7444 C   0  0  0  0  0  0  0  0  0  0  0  0
    2.9920    4.6007   -6.4301 O   0  0  0  0  0  0  0  0  0  0  0  0
    3.8627    2.5835   -7.1574 N   0  0  0  0  0  0  0  0  0  0  0  0
    5.2325    2.9523   -7.1432 C   0  0  0  0  0  0  0  0  0  0  0  0
    5.7412    3.7914   -6.1493 C   0  0  0  0  0  0  0  0  0  0  0  0
    7.0355    4.1708   -6.0502 N   0  0  0  0  0  0  0  0  0  0  0  0
    7.8635    3.7103   -7.0094 C   0  0  0  0  0  0  0  0  0  0  0  0
    7.4794    2.8801   -8.0628 C   0  0  0  0  0  0  0  0  0  0  0  0
    8.3997    2.4807   -9.0476 C   0  0  0  0  0  0  0  0  0  0  0  0
    7.9983    1.6857  -10.1172 C   0  0  0  0  0  0  0  0  0  0  0  0
    6.6755    1.2690  -10.2071 C   0  0  0  0  0  0  0  0  0  0  0  0
    5.7532    1.6515   -9.2289 C   0  0  0  0  0  0  0  0  0  0  0  0
    6.1256    2.4666   -8.1323 C   0  0  0  0  0  0  0  0  0  0  0  0
    1.6137    1.2706   -4.8093 C   0  0  0  0  0  0  0  0  0  0  0  0
   -0.1248   -1.6698   -2.0710 C   0  0  0  0  0  0  0  0  0  0  0  0
   -0.6715   -2.5358   -1.1227 C   0  0  0  0  0  0  0  0  0  0  0  0
   -0.0948   -2.6242    0.1346 C   0  0  0  0  0  0  0  0  0  0  0  0
   -0.8460   -3.7776    1.4303 Br  0  0  0  0  0  0  0  0  0  0  0  0
    1.0256   -1.8601    0.4507 C   0  0  0  0  0  0  0  0  0  0  0  0
    4.4317   -0.0526    0.8555 H   0  0  0  0  0  0  0  0  0  0  0  0
    3.7808   -1.6967    0.8380 H   0  0  0  0  0  0  0  0  0  0  0  0
    2.9727   -0.3908    1.7881 H   0  0  0  0  0  0  0  0  0  0  0  0
    2.4299    0.4225   -2.4236 H   0  0  0  0  0  0  0  0  0  0  0  0
    0.8435   -2.0245   -4.5449 H   0  0  0  0  0  0  0  0  0  0  0  0
    0.4669    0.5413   -7.9429 H   0  0  0  0  0  0  0  0  0  0  0  0
    0.7459    3.5146   -6.3537 H   0  0  0  0  0  0  0  0  0  0  0  0
    1.1872    2.7691   -7.8892 H   0  0  0  0  0  0  0  0  0  0  0  0
    3.6068    1.7453   -7.6599 H   0  0  0  0  0  0  0  0  0  0  0  0
    5.1121    4.1758   -5.3504 H   0  0  0  0  0  0  0  0  0  0  0  0
    8.8911    4.0555   -6.9111 H   0  0  0  0  0  0  0  0  0  0  0  0
    9.4371    2.8089   -8.9959 H   0  0  0  0  0  0  0  0  0  0  0  0
    8.7137    1.4032  -10.8851 H   0  0  0  0  0  0  0  0  0  0  0  0
    6.3550    0.6581  -11.0470 H   0  0  0  0  0  0  0  0  0  0  0  0
    4.7255    1.3254   -9.3626 H   0  0  0  0  0  0  0  0  0  0  0  0
    1.9673    2.1133   -4.2147 H   0  0  0  0  0  0  0  0  0  0  0  0
   -0.6509   -1.5699   -3.0140 H   0  0  0  0  0  0  0  0  0  0  0  0
   -1.5516   -3.1196   -1.3779 H   0  0  0  0  0  0  0  0  0  0  0  0
    1.4166   -1.9183    1.4604 H   0  0  0  0  0  0  0  0  0  0  0  0
  1  2  1  0  0  0  0
  1 32  1  0  0  0  0
  1 33  1  0  0  0  0
  1 34  1  0  0  0  0
  2  3  1  0  0  0  0
  3  4  2  0  0  0  0
  3 31  1  0  0  0  0
  4  5  1  0  0  0  0
  4 27  1  0  0  0  0
  5  6  1  0  0  0  0
  5 35  1  0  0  0  0
  6  7  2  0  0  0  0
  6 26  1  0  0  0  0
  7  8  1  0  0  0  0
  7 36  1  0  0  0  0
  8  9  1  0  0  0  0
  8 10  2  0  0  0  0
 10 11  1  0  0  0  0
 10 37  1  0  0  0  0
 11 12  1  0  0  0  0
 11 26  2  0  0  0  0
 12 13  1  0  0  0  0
 12 38  1  0  0  0  0
 12 39  1  0  0  0  0
 13 14  2  0  0  0  0
 13 15  1  0  0  0  0
 15 16  1  0  0  0  0
 15 40  1  0  0  0  0
 16 17  2  0  0  0  0
 16 25  1  0  0  0  0
 17 18  1  0  0  0  0
 17 41  1  0  0  0  0
 18 19  2  0  0  0  0
 19 20  1  0  0  0  0
 19 42  1  0  0  0  0
 20 21  2  0  0  0  0
 20 25  1  0  0  0  0
 21 22  1  0  0  0  0
 21 43  1  0  0  0  0
 22 23  2  0  0  0  0
 22 44  1  0  0  0  0
 23 24  1  0  0  0  0
 23 45  1  0  0  0  0
 24 25  2  0  0  0  0
 24 46  1  0  0  0  0
 26 47  1  0  0  0  0
 27 28  2  0  0  0  0
 27 48  1  0  0  0  0
 28 29  1  0  0  0  0
 28 49  1  0  0  0  0
 29 30  1  0  0  0  0
 29 31  2  0  0  0  0
 31 50  1  0  0  0  0
M  END
$$$$
