
 OpenBabel07202414133D

 42 43  0  0  0  0  0  0  0  0999 V2000
    1.7601   -2.1332   -4.2470 C   0  0  0  0  0  0  0  0  0  0  0  0
    2.9889   -1.2583   -4.0519 C   0  0  0  0  0  0  0  0  0  0  0  0
    3.4036   -1.3157   -2.6471 N   0  0  0  0  0  0  0  0  0  0  0  0
    4.5539   -0.5552   -2.3686 C   0  0  0  0  0  0  0  0  0  0  0  0
    4.8426    0.4745   -3.2024 N   0  0  0  0  0  0  0  0  0  0  0  0
    5.8940    1.2797   -2.9206 C   0  0  0  0  0  0  0  0  0  0  0  0
    6.7199    1.1029   -1.8307 C   0  0  0  0  0  0  0  0  0  0  0  0
    7.8297    1.9728   -1.6083 C   0  0  0  0  0  0  0  0  0  0  0  0
    8.7368    2.6837   -1.4426 N   0  0  0  0  0  0  0  0  0  0  0  0
    6.4185    0.0537   -0.9655 C   0  0  0  0  0  0  0  0  0  0  0  0
    5.3180   -0.7978   -1.2110 C   0  0  0  0  0  0  0  0  0  0  0  0
    4.9381   -1.8588   -0.1839 C   0  0  0  0  0  0  0  0  0  0  0  0
    6.0787   -2.4550    0.5388 N   0  0  0  0  0  0  0  0  0  0  0  0
    6.9239   -3.3388   -0.2836 C   0  0  0  0  0  0  0  0  0  0  0  0
    6.3577   -4.7422   -0.5808 C   0  0  0  0  0  0  0  0  0  0  0  0
    5.8335   -5.4271    0.6015 N   0  0  0  0  0  0  0  0  0  0  0  0
    5.5851   -6.8103    0.6425 C   0  0  0  0  0  0  0  0  0  0  0  0
    4.9842   -7.3164    1.5917 O   0  0  0  0  0  0  0  0  0  0  0  0
    6.0756   -7.6260   -0.5499 C   0  0  0  0  0  0  0  0  0  0  0  0
    5.6911   -9.3524   -0.3817 Cl  0  0  0  0  0  0  0  0  0  0  0  0
    5.0827   -4.5983    1.5486 C   0  0  0  0  0  0  0  0  0  0  0  0
    5.6588   -3.1830    1.7547 C   0  0  0  0  0  0  0  0  0  0  0  0
    1.4780   -2.1641   -5.3041 H   0  0  0  0  0  0  0  0  0  0  0  0
    0.9113   -1.7458   -3.6744 H   0  0  0  0  0  0  0  0  0  0  0  0
    1.9488   -3.1598   -3.9142 H   0  0  0  0  0  0  0  0  0  0  0  0
    2.7481   -0.2367   -4.3687 H   0  0  0  0  0  0  0  0  0  0  0  0
    3.7958   -1.6430   -4.6886 H   0  0  0  0  0  0  0  0  0  0  0  0
    3.5383   -2.2806   -2.3771 H   0  0  0  0  0  0  0  0  0  0  0  0
    6.0407    2.0957   -3.6261 H   0  0  0  0  0  0  0  0  0  0  0  0
    7.0377   -0.1043   -0.0830 H   0  0  0  0  0  0  0  0  0  0  0  0
    4.3348   -2.6564   -0.6243 H   0  0  0  0  0  0  0  0  0  0  0  0
    4.2941   -1.3344    0.5356 H   0  0  0  0  0  0  0  0  0  0  0  0
    7.8693   -3.4682    0.2602 H   0  0  0  0  0  0  0  0  0  0  0  0
    7.2006   -2.8552   -1.2268 H   0  0  0  0  0  0  0  0  0  0  0  0
    7.1570   -5.3467   -1.0205 H   0  0  0  0  0  0  0  0  0  0  0  0
    5.5447   -4.6860   -1.3131 H   0  0  0  0  0  0  0  0  0  0  0  0
    7.1600   -7.5429   -0.6487 H   0  0  0  0  0  0  0  0  0  0  0  0
    5.5799   -7.2749   -1.4589 H   0  0  0  0  0  0  0  0  0  0  0  0
    5.0423   -5.1054    2.5204 H   0  0  0  0  0  0  0  0  0  0  0  0
    4.0547   -4.5386    1.1719 H   0  0  0  0  0  0  0  0  0  0  0  0
    6.5456   -3.2724    2.3953 H   0  0  0  0  0  0  0  0  0  0  0  0
    4.9451   -2.5843    2.3348 H   0  0  0  0  0  0  0  0  0  0  0  0
  1  2  1  0  0  0  0
  1 23  1  0  0  0  0
  1 24  1  0  0  0  0
  1 25  1  0  0  0  0
  2  3  1  0  0  0  0
  2 26  1  0  0  0  0
  2 27  1  0  0  0  0
  3  4  1  0  0  0  0
  3 28  1  0  0  0  0
  4  5  1  0  0  0  0
  4 11  2  0  0  0  0
  5  6  2  0  0  0  0
  6  7  1  0  0  0  0
  6 29  1  0  0  0  0
  7  8  1  0  0  0  0
  7 10  2  0  0  0  0
  8  9  3  0  0  0  0
 10 11  1  0  0  0  0
 10 30  1  0  0  0  0
 11 12  1  0  0  0  0
 12 13  1  0  0  0  0
 12 31  1  0  0  0  0
 12 32  1  0  0  0  0
 13 14  1  0  0  0  0
 13 22  1  0  0  0  0
 14 15  1  0  0  0  0
 14 33  1  0  0  0  0
 14 34  1  0  0  0  0
 15 16  1  0  0  0  0
 15 35  1  0  0  0  0
 15 36  1  0  0  0  0
 16 17  1  0  0  0  0
 16 21  1  0  0  0  0
 17 18  2  0  0  0  0
 17 19  1  0  0  0  0
 19 20  1  0  0  0  0
 19 37  1  0  0  0  0
 19 38  1  0  0  0  0
 21 22  1  0  0  0  0
 21 39  1  0  0  0  0
 21 40  1  0  0  0  0
 22 41  1  0  0  0  0
 22 42  1  0  0  0  0
M  END
$$$$
