
 OpenBabel07202414183D

 52 56  0  0  1  0  0  0  0  0999 V2000
   -6.2244    0.3848   -3.0759 C   0  0  0  0  0  0  0  0  0  0  0  0
   -4.9770    0.5073   -2.3717 N   0  0  0  0  0  0  0  0  0  0  0  0
   -4.6960    1.2654   -1.2757 C   0  0  0  0  0  0  0  0  0  0  0  0
   -3.3607    1.0185   -1.0356 C   0  0  0  0  0  0  0  0  0  0  0  0
   -2.4421    1.5492    0.0128 C   0  0  0  0  0  0  0  0  0  0  0  0
   -2.3649    3.0314   -0.0088 N   0  0  0  0  0  0  0  0  0  0  0  0
   -1.7771    3.5103   -1.2856 C   0  0  0  0  0  0  0  0  0  0  0  0
   -1.7842    5.0490   -1.3598 C   0  0  3  0  0  0  0  0  0  0  0  0
   -3.2141    5.6020   -1.5208 C   0  0  0  0  0  0  0  0  0  0  0  0
   -3.4923    6.3722   -2.4363 O   0  0  0  0  0  0  0  0  0  0  0  0
   -4.0936    5.1656   -0.5457 N   0  0  0  0  0  0  0  0  0  0  0  0
   -5.4989    5.3129   -0.4849 C   0  0  0  0  0  0  0  0  0  0  0  0
   -6.2356    5.8998   -1.5116 C   0  0  0  0  0  0  0  0  0  0  0  0
   -7.5869    5.8785   -1.5848 N   0  0  0  0  0  0  0  0  0  0  0  0
   -8.2410    5.3105   -0.5524 C   0  0  0  0  0  0  0  0  0  0  0  0
   -7.6271    4.8074    0.5913 C   0  0  0  0  0  0  0  0  0  0  0  0
   -8.3924    4.3586    1.6884 C   0  0  0  0  0  0  0  0  0  0  0  0
   -7.7720    3.9010    2.8435 C   0  0  0  0  0  0  0  0  0  0  0  0
   -6.3909    3.8539    2.8928 C   0  0  0  0  0  0  0  0  0  0  0  0
   -5.7791    3.4123    4.0004 F   0  0  0  0  0  0  0  0  0  0  0  0
   -5.6186    4.2802    1.8165 C   0  0  0  0  0  0  0  0  0  0  0  0
   -6.2115    4.7924    0.6373 C   0  0  0  0  0  0  0  0  0  0  0  0
   -1.0784    5.6318   -0.1538 C   0  0  0  0  0  0  0  0  0  0  0  0
   -0.4678    6.8929   -0.2337 C   0  0  0  0  0  0  0  0  0  0  0  0
    0.1762    7.4267    0.8801 C   0  0  0  0  0  0  0  0  0  0  0  0
    0.9698    8.9484    0.7627 Cl  0  0  0  0  0  0  0  0  0  0  0  0
    0.1944    6.7294    2.0849 C   0  0  0  0  0  0  0  0  0  0  0  0
   -0.4085    5.4729    2.1705 C   0  0  0  0  0  0  0  0  0  0  0  0
   -1.0344    4.9033    1.0510 C   0  0  0  0  0  0  0  0  0  0  0  0
   -1.5490    3.4785    1.1427 C   0  0  0  0  0  0  0  0  0  0  0  0
   -2.8998    0.1269   -1.9749 N   0  0  0  0  0  0  0  0  0  0  0  0
   -3.9023   -0.1846   -2.7866 N   0  0  0  0  0  0  0  0  0  0  0  0
   -6.9839    0.9932   -2.5794 H   0  0  0  0  0  0  0  0  0  0  0  0
   -6.5252   -0.6661   -3.0678 H   0  0  0  0  0  0  0  0  0  0  0  0
   -6.0777    0.7326   -4.1013 H   0  0  0  0  0  0  0  0  0  0  0  0
   -5.4247    1.8972   -0.7911 H   0  0  0  0  0  0  0  0  0  0  0  0
   -1.4447    1.1072   -0.1110 H   0  0  0  0  0  0  0  0  0  0  0  0
   -2.8263    1.2195    0.9858 H   0  0  0  0  0  0  0  0  0  0  0  0
   -2.3496    3.1361   -2.1425 H   0  0  0  0  0  0  0  0  0  0  0  0
   -0.7496    3.1352   -1.3923 H   0  0  0  0  0  0  0  0  0  0  0  0
   -1.2291    5.3295   -2.2657 H   0  0  0  0  0  0  0  0  0  0  0  0
   -3.6833    4.5101    0.1130 H   0  0  0  0  0  0  0  0  0  0  0  0
   -5.7662    6.4037   -2.3498 H   0  0  0  0  0  0  0  0  0  0  0  0
   -9.3221    5.2809   -0.6731 H   0  0  0  0  0  0  0  0  0  0  0  0
   -9.4792    4.3952    1.6568 H   0  0  0  0  0  0  0  0  0  0  0  0
   -8.3526    3.5964    3.7121 H   0  0  0  0  0  0  0  0  0  0  0  0
   -4.5405    4.2450    1.9403 H   0  0  0  0  0  0  0  0  0  0  0  0
   -0.4802    7.4492   -1.1693 H   0  0  0  0  0  0  0  0  0  0  0  0
    0.6914    7.1498    2.9552 H   0  0  0  0  0  0  0  0  0  0  0  0
   -0.3661    4.9300    3.1127 H   0  0  0  0  0  0  0  0  0  0  0  0
   -2.1769    3.4022    2.0397 H   0  0  0  0  0  0  0  0  0  0  0  0
   -0.6770    2.8268    1.2798 H   0  0  0  0  0  0  0  0  0  0  0  0
  1  2  1  0  0  0  0
  1 33  1  0  0  0  0
  1 34  1  0  0  0  0
  1 35  1  0  0  0  0
  2  3  1  0  0  0  0
  2 32  1  0  0  0  0
  3  4  2  0  0  0  0
  3 36  1  0  0  0  0
  4  5  1  0  0  0  0
  4 31  1  0  0  0  0
  5  6  1  0  0  0  0
  5 37  1  0  0  0  0
  5 38  1  0  0  0  0
  6  7  1  0  0  0  0
  6 30  1  0  0  0  0
  7  8  1  0  0  0  0
  7 39  1  0  0  0  0
  7 40  1  0  0  0  0
  8  9  1  0  0  0  0
  8 23  1  0  0  0  0
  8 41  1  0  0  0  0
  9 10  2  0  0  0  0
  9 11  1  0  0  0  0
 11 12  1  0  0  0  0
 11 42  1  0  0  0  0
 12 13  1  0  0  0  0
 12 22  2  0  0  0  0
 13 14  2  0  0  0  0
 13 43  1  0  0  0  0
 14 15  1  0  0  0  0
 15 16  2  0  0  0  0
 15 44  1  0  0  0  0
 16 17  1  0  0  0  0
 16 22  1  0  0  0  0
 17 18  2  0  0  0  0
 17 45  1  0  0  0  0
 18 19  1  0  0  0  0
 18 46  1  0  0  0  0
 19 20  1  0  0  0  0
 19 21  2  0  0  0  0
 21 22  1  0  0  0  0
 21 47  1  0  0  0  0
 23 24  1  0  0  0  0
 23 29  2  0  0  0  0
 24 25  2  0  0  0  0
 24 48  1  0  0  0  0
 25 26  1  0  0  0  0
 25 27  1  0  0  0  0
 27 28  2  0  0  0  0
 27 49  1  0  0  0  0
 28 29  1  0  0  0  0
 28 50  1  0  0  0  0
 29 30  1  0  0  0  0
 30 51  1  0  0  0  0
 30 52  1  0  0  0  0
 31 32  2  0  0  0  0
M  END
$$$$
