
 OpenBabel07202414143D

 48 51  0  0  0  0  0  0  0  0999 V2000
    4.1574   -0.2766    5.6253 C   0  0  0  0  0  0  0  0  0  0  0  0
    3.3602   -0.8691    4.5982 O   0  0  0  0  0  0  0  0  0  0  0  0
    2.0131   -0.8874    4.9289 C   0  0  0  0  0  0  0  0  0  0  0  0
    1.0772   -1.1449    3.8985 C   0  0  0  0  0  0  0  0  0  0  0  0
    1.5114   -1.4829    2.6004 N   0  0  0  0  0  0  0  0  0  0  0  0
    0.7881   -1.8280    1.4435 C   0  0  0  0  0  0  0  0  0  0  0  0
    1.4844   -2.4364    0.3821 C   0  0  0  0  0  0  0  0  0  0  0  0
    0.8103   -2.8811   -0.7531 C   0  0  0  0  0  0  0  0  0  0  0  0
    1.6950   -3.6089   -2.0429 Cl  0  0  0  0  0  0  0  0  0  0  0  0
   -0.5676   -2.7034   -0.8850 C   0  0  0  0  0  0  0  0  0  0  0  0
   -1.3049   -2.1118    0.1508 C   0  0  0  0  0  0  0  0  0  0  0  0
   -2.7759   -1.8084   -0.0845 C   0  0  0  0  0  0  0  0  0  0  0  0
   -3.6925   -1.8239    1.1245 C   0  0  0  0  0  0  0  0  0  0  0  0
   -4.0849   -0.7779    1.6374 O   0  0  0  0  0  0  0  0  0  0  0  0
   -4.0719   -3.0857    1.5494 N   0  0  0  0  0  0  0  0  0  0  0  0
   -4.3366   -3.4147    2.9089 C   0  0  0  0  0  0  0  0  0  0  0  0
   -3.9033   -2.5771    3.9309 C   0  0  0  0  0  0  0  0  0  0  0  0
   -3.3746   -3.0442    5.0803 N   0  0  0  0  0  0  0  0  0  0  0  0
   -3.3787   -4.3866    5.2362 C   0  0  0  0  0  0  0  0  0  0  0  0
   -4.0927   -5.2669    4.4234 C   0  0  0  0  0  0  0  0  0  0  0  0
   -4.2857   -6.6162    4.7655 C   0  0  0  0  0  0  0  0  0  0  0  0
   -5.1287   -7.4243    4.0052 C   0  0  0  0  0  0  0  0  0  0  0  0
   -5.7423   -6.9094    2.8665 C   0  0  0  0  0  0  0  0  0  0  0  0
   -5.4724   -5.5989    2.4599 C   0  0  0  0  0  0  0  0  0  0  0  0
   -4.6380   -4.7550    3.2351 C   0  0  0  0  0  0  0  0  0  0  0  0
   -0.6099   -1.6975    1.3076 C   0  0  0  0  0  0  0  0  0  0  0  0
   -0.2407   -1.1642    4.1964 N   0  0  0  0  0  0  0  0  0  0  0  0
   -0.5939   -0.9526    5.4958 C   0  0  0  0  0  0  0  0  0  0  0  0
    0.3410   -0.7278    6.4822 C   0  0  0  0  0  0  0  0  0  0  0  0
   -0.2408   -0.4900    8.2658 Br  0  0  0  0  0  0  0  0  0  0  0  0
    1.6642   -0.6789    6.2249 N   0  0  0  0  0  0  0  0  0  0  0  0
    5.2011   -0.2916    5.2972 H   0  0  0  0  0  0  0  0  0  0  0  0
    4.1018   -0.8392    6.5648 H   0  0  0  0  0  0  0  0  0  0  0  0
    3.8713    0.7704    5.7811 H   0  0  0  0  0  0  0  0  0  0  0  0
    2.4720   -1.2041    2.4341 H   0  0  0  0  0  0  0  0  0  0  0  0
    2.5683   -2.5865    0.4640 H   0  0  0  0  0  0  0  0  0  0  0  0
   -1.0627   -3.0152   -1.8008 H   0  0  0  0  0  0  0  0  0  0  0  0
   -3.1855   -2.5160   -0.8204 H   0  0  0  0  0  0  0  0  0  0  0  0
   -2.8403   -0.8128   -0.5360 H   0  0  0  0  0  0  0  0  0  0  0  0
   -3.7480   -3.8800    1.0066 H   0  0  0  0  0  0  0  0  0  0  0  0
   -3.8512   -1.4998    3.8184 H   0  0  0  0  0  0  0  0  0  0  0  0
   -2.7944   -4.7427    6.0788 H   0  0  0  0  0  0  0  0  0  0  0  0
   -3.8239   -7.0269    5.6611 H   0  0  0  0  0  0  0  0  0  0  0  0
   -5.3308   -8.4458    4.3200 H   0  0  0  0  0  0  0  0  0  0  0  0
   -6.4472   -7.5237    2.3069 H   0  0  0  0  0  0  0  0  0  0  0  0
   -5.9904   -5.2071    1.5856 H   0  0  0  0  0  0  0  0  0  0  0  0
   -1.1749   -1.2111    2.0999 H   0  0  0  0  0  0  0  0  0  0  0  0
   -1.6546   -0.9766    5.6839 H   0  0  0  0  0  0  0  0  0  0  0  0
  1  2  1  0  0  0  0
  1 32  1  0  0  0  0
  1 33  1  0  0  0  0
  1 34  1  0  0  0  0
  2  3  1  0  0  0  0
  3  4  2  0  0  0  0
  3 31  1  0  0  0  0
  4  5  1  0  0  0  0
  4 27  1  0  0  0  0
  5  6  1  0  0  0  0
  5 35  1  0  0  0  0
  6  7  2  0  0  0  0
  6 26  1  0  0  0  0
  7  8  1  0  0  0  0
  7 36  1  0  0  0  0
  8  9  1  0  0  0  0
  8 10  2  0  0  0  0
 10 11  1  0  0  0  0
 10 37  1  0  0  0  0
 11 12  1  0  0  0  0
 11 26  2  0  0  0  0
 12 13  1  0  0  0  0
 12 38  1  0  0  0  0
 12 39  1  0  0  0  0
 13 14  2  0  0  0  0
 13 15  1  0  0  0  0
 15 16  1  0  0  0  0
 15 40  1  0  0  0  0
 16 17  2  0  0  0  0
 16 25  1  0  0  0  0
 17 18  1  0  0  0  0
 17 41  1  0  0  0  0
 18 19  2  0  0  0  0
 19 20  1  0  0  0  0
 19 42  1  0  0  0  0
 20 21  2  0  0  0  0
 20 25  1  0  0  0  0
 21 22  1  0  0  0  0
 21 43  1  0  0  0  0
 22 23  2  0  0  0  0
 22 44  1  0  0  0  0
 23 24  1  0  0  0  0
 23 45  1  0  0  0  0
 24 25  2  0  0  0  0
 24 46  1  0  0  0  0
 26 47  1  0  0  0  0
 27 28  2  0  0  0  0
 28 29  1  0  0  0  0
 28 48  1  0  0  0  0
 29 30  1  0  0  0  0
 29 31  2  0  0  0  0
M  END
$$$$
