
 OpenBabel07202414143D

 58 62  0  0  1  0  0  0  0  0999 V2000
    6.9898    0.6084    2.4466 C   0  0  0  0  0  0  0  0  0  0  0  0
    6.3601    0.9295    1.1916 N   0  0  0  0  0  0  0  0  0  0  0  0
    5.0138    0.7246    0.9861 C   0  0  0  0  0  0  0  0  0  0  0  0
    4.2880    0.1944    1.8247 O   0  0  0  0  0  0  0  0  0  0  0  0
    4.4833    1.1773   -0.3881 C   0  0  0  0  0  0  0  0  0  0  0  0
    5.2378    2.3340   -0.9184 N   0  0  0  0  0  0  0  0  0  0  0  0
    5.0339    3.5449   -0.1118 C   0  0  0  0  0  0  0  0  0  0  0  0
    3.9653    4.5108   -0.5636 C   0  0  0  0  0  0  0  0  0  0  0  0
    3.5525    5.5059    0.3481 C   0  0  0  0  0  0  0  0  0  0  0  0
    2.6920    6.5320   -0.0365 C   0  0  0  0  0  0  0  0  0  0  0  0
    2.2722    6.5964   -1.3529 C   0  0  0  0  0  0  0  0  0  0  0  0
    1.2565    7.8864   -1.8711 Cl  0  0  0  0  0  0  0  0  0  0  0  0
    2.6661    5.6149   -2.2626 C   0  0  0  0  0  0  0  0  0  0  0  0
    3.4788    4.5294   -1.8817 C   0  0  0  0  0  0  0  0  0  0  0  0
    3.7675    3.3508   -2.8282 C   0  0  3  0  0  0  0  0  0  0  0  0
    3.9552    3.7958   -4.3137 C   0  0  0  0  0  0  0  0  0  0  0  0
    2.6896    3.3757   -5.0533 C   0  0  0  0  0  0  0  0  0  0  0  0
    1.7698    2.9910   -4.0266 N   0  0  0  0  0  0  0  0  0  0  0  0
    0.4210    2.6946   -4.3168 C   0  0  0  0  0  0  0  0  0  0  0  0
   -0.0836    1.3970   -4.2895 C   0  0  0  0  0  0  0  0  0  0  0  0
   -1.3762    1.0790   -4.5453 N   0  0  0  0  0  0  0  0  0  0  0  0
   -2.2218    2.1071   -4.7773 C   0  0  0  0  0  0  0  0  0  0  0  0
   -1.8488    3.4462   -4.7690 C   0  0  0  0  0  0  0  0  0  0  0  0
   -0.4892    3.7486   -4.5576 C   0  0  0  0  0  0  0  0  0  0  0  0
   -0.0810    5.1924   -4.3988 C   0  0  0  0  0  0  0  0  0  0  0  0
   -1.0275    6.1902   -5.0469 C   0  0  0  0  0  0  0  0  0  0  0  0
   -2.4468    5.9165   -4.5848 C   0  0  0  0  0  0  0  0  0  0  0  0
   -2.8830    4.5172   -5.0177 C   0  0  0  0  0  0  0  0  0  0  0  0
    2.4938    2.4776   -2.9394 C   0  0  0  0  0  0  0  0  0  0  0  0
    2.1280    1.6028   -2.1743 O   0  0  0  0  0  0  0  0  0  0  0  0
    5.0223    2.5729   -2.3568 C   0  0  0  0  0  0  0  0  0  0  0  0
    7.9456    1.1333    2.5093 H   0  0  0  0  0  0  0  0  0  0  0  0
    7.1506   -0.4716    2.4939 H   0  0  0  0  0  0  0  0  0  0  0  0
    6.3465    0.9139    3.2757 H   0  0  0  0  0  0  0  0  0  0  0  0
    6.8963    1.3072    0.4163 H   0  0  0  0  0  0  0  0  0  0  0  0
    3.4243    1.4098   -0.2633 H   0  0  0  0  0  0  0  0  0  0  0  0
    4.5976    0.3135   -1.0544 H   0  0  0  0  0  0  0  0  0  0  0  0
    5.9799    4.1024   -0.1267 H   0  0  0  0  0  0  0  0  0  0  0  0
    4.8561    3.2943    0.9413 H   0  0  0  0  0  0  0  0  0  0  0  0
    3.9140    5.4867    1.3755 H   0  0  0  0  0  0  0  0  0  0  0  0
    2.3782    7.2808    0.6847 H   0  0  0  0  0  0  0  0  0  0  0  0
    2.3221    5.7078   -3.2831 H   0  0  0  0  0  0  0  0  0  0  0  0
    4.8194    3.3167   -4.7887 H   0  0  0  0  0  0  0  0  0  0  0  0
    4.1193    4.8739   -4.4163 H   0  0  0  0  0  0  0  0  0  0  0  0
    2.8990    2.4891   -5.6668 H   0  0  0  0  0  0  0  0  0  0  0  0
    2.3013    4.1533   -5.7125 H   0  0  0  0  0  0  0  0  0  0  0  0
    0.5546    0.5450   -4.0754 H   0  0  0  0  0  0  0  0  0  0  0  0
   -3.2529    1.8135   -4.9584 H   0  0  0  0  0  0  0  0  0  0  0  0
    0.9009    5.3761   -4.8318 H   0  0  0  0  0  0  0  0  0  0  0  0
   -0.0301    5.3981   -3.3213 H   0  0  0  0  0  0  0  0  0  0  0  0
   -0.9631    6.1094   -6.1389 H   0  0  0  0  0  0  0  0  0  0  0  0
   -0.7255    7.2083   -4.7777 H   0  0  0  0  0  0  0  0  0  0  0  0
   -3.1276    6.6680   -5.0003 H   0  0  0  0  0  0  0  0  0  0  0  0
   -2.4982    6.0067   -3.4920 H   0  0  0  0  0  0  0  0  0  0  0  0
   -3.1006    4.5302   -6.0929 H   0  0  0  0  0  0  0  0  0  0  0  0
   -3.8133    4.2689   -4.4939 H   0  0  0  0  0  0  0  0  0  0  0  0
    5.9006    3.1507   -2.6811 H   0  0  0  0  0  0  0  0  0  0  0  0
    5.1008    1.6235   -2.9030 H   0  0  0  0  0  0  0  0  0  0  0  0
  1  2  1  0  0  0  0
  1 32  1  0  0  0  0
  1 33  1  0  0  0  0
  1 34  1  0  0  0  0
  2  3  1  0  0  0  0
  2 35  1  0  0  0  0
  3  4  2  0  0  0  0
  3  5  1  0  0  0  0
  5  6  1  0  0  0  0
  5 36  1  0  0  0  0
  5 37  1  0  0  0  0
  6  7  1  0  0  0  0
  6 31  1  0  0  0  0
  7  8  1  0  0  0  0
  7 38  1  0  0  0  0
  7 39  1  0  0  0  0
  8  9  1  0  0  0  0
  8 14  2  0  0  0  0
  9 10  2  0  0  0  0
  9 40  1  0  0  0  0
 10 11  1  0  0  0  0
 10 41  1  0  0  0  0
 11 12  1  0  0  0  0
 11 13  2  0  0  0  0
 13 14  1  0  0  0  0
 13 42  1  0  0  0  0
 14 15  1  0  0  0  0
 15 16  1  0  0  0  0
 15 29  1  0  0  0  0
 15 31  1  0  0  0  0
 16 17  1  0  0  0  0
 16 43  1  0  0  0  0
 16 44  1  0  0  0  0
 17 18  1  0  0  0  0
 17 45  1  0  0  0  0
 17 46  1  0  0  0  0
 18 19  1  0  0  0  0
 18 29  1  0  0  0  0
 19 20  1  0  0  0  0
 19 24  2  0  0  0  0
 20 21  2  0  0  0  0
 20 47  1  0  0  0  0
 21 22  1  0  0  0  0
 22 23  2  0  0  0  0
 22 48  1  0  0  0  0
 23 24  1  0  0  0  0
 23 28  1  0  0  0  0
 24 25  1  0  0  0  0
 25 26  1  0  0  0  0
 25 49  1  0  0  0  0
 25 50  1  0  0  0  0
 26 27  1  0  0  0  0
 26 51  1  0  0  0  0
 26 52  1  0  0  0  0
 27 28  1  0  0  0  0
 27 53  1  0  0  0  0
 27 54  1  0  0  0  0
 28 55  1  0  0  0  0
 28 56  1  0  0  0  0
 29 30  2  0  0  0  0
 31 57  1  0  0  0  0
 31 58  1  0  0  0  0
M  END
$$$$
