
 OpenBabel07202414123D

 64 66  0  0  1  0  0  0  0  0999 V2000
    3.5297   -0.6788    0.6835 C   0  0  0  0  0  0  0  0  0  0  0  0
    4.3598    0.5197    1.1964 C   0  0  0  0  0  0  0  0  0  0  0  0
    3.8205    0.9429    2.5760 C   0  0  0  0  0  0  0  0  0  0  0  0
    5.8064    0.0020    1.3644 C   0  0  0  0  0  0  0  0  0  0  0  0
    4.2775    1.7352    0.2505 C   0  0  0  0  0  0  0  0  0  0  0  0
    3.1445    1.9729   -0.5487 C   0  0  0  0  0  0  0  0  0  0  0  0
    3.0889    3.0555   -1.4331 C   0  0  0  0  0  0  0  0  0  0  0  0
    4.1597    3.9492   -1.5465 C   0  0  0  0  0  0  0  0  0  0  0  0
    5.2738    3.7449   -0.7301 C   0  0  0  0  0  0  0  0  0  0  0  0
    5.3198    2.6711    0.1684 C   0  0  0  0  0  0  0  0  0  0  0  0
    4.1393    4.9569   -2.5549 N   0  0  0  0  0  0  0  0  0  0  0  0
    5.2388    5.0193   -3.5695 C   0  0  3  0  0  0  0  0  0  0  0  0
    6.4441    5.8796   -3.1661 C   0  0  0  0  0  0  0  0  0  0  0  0
    6.4611    6.6800   -2.0108 C   0  0  0  0  0  0  0  0  0  0  0  0
    7.5704    7.4674   -1.7121 C   0  0  0  0  0  0  0  0  0  0  0  0
    8.6244    7.4866   -2.6055 C   0  0  0  0  0  0  0  0  0  0  0  0
    8.6364    6.7768   -3.7551 N   0  0  0  0  0  0  0  0  0  0  0  0
    7.5509    6.0047   -4.0117 C   0  0  0  0  0  0  0  0  0  0  0  0
    7.6269    8.3751   -0.2568 Cl  0  0  0  0  0  0  0  0  0  0  0  0
    5.6208    3.7050   -4.3588 C   0  0  0  0  0  0  0  0  0  0  0  0
    6.0093    3.7773   -5.5317 O   0  0  0  0  0  0  0  0  0  0  0  0
    5.6667    2.4914   -3.7044 N   0  0  0  0  0  0  0  0  0  0  0  0
    6.0241    1.2503   -4.3807 C   0  0  0  0  0  0  0  0  0  0  0  0
    7.5070    1.1759   -4.7573 C   0  0  0  0  0  0  0  0  0  0  0  0
    7.8812   -0.1339   -5.4091 C   0  0  0  0  0  0  0  0  0  0  0  0
    7.7791   -0.2892   -6.8004 C   0  0  0  0  0  0  0  0  0  0  0  0
    8.1598   -1.4861   -7.4147 C   0  0  0  0  0  0  0  0  0  0  0  0
    8.6376   -2.5433   -6.6431 C   0  0  0  0  0  0  0  0  0  0  0  0
    8.7246   -2.3962   -5.2642 C   0  0  0  0  0  0  0  0  0  0  0  0
    8.3489   -1.2087   -4.6418 C   0  0  0  0  0  0  0  0  0  0  0  0
    9.1852   -3.4114   -4.5215 F   0  0  0  0  0  0  0  0  0  0  0  0
    3.0445    5.8072   -2.7725 C   0  0  0  0  0  0  0  0  0  0  0  0
    2.9589    6.5630   -3.7401 O   0  0  0  0  0  0  0  0  0  0  0  0
    1.9690    5.8500   -1.7373 C   0  0  0  0  0  0  0  0  0  0  0  0
    0.7373    6.2553   -2.0747 C   0  0  0  0  0  0  0  0  0  0  0  0
    3.6678   -1.5589    1.3226 H   0  0  0  0  0  0  0  0  0  0  0  0
    3.8270   -0.9584   -0.3350 H   0  0  0  0  0  0  0  0  0  0  0  0
    2.4533   -0.4695    0.6769 H   0  0  0  0  0  0  0  0  0  0  0  0
    3.8370    0.1029    3.2794 H   0  0  0  0  0  0  0  0  0  0  0  0
    2.7867    1.3017    2.5105 H   0  0  0  0  0  0  0  0  0  0  0  0
    4.4210    1.7510    3.0107 H   0  0  0  0  0  0  0  0  0  0  0  0
    5.8293   -0.9040    1.9813 H   0  0  0  0  0  0  0  0  0  0  0  0
    6.4573    0.7289    1.8617 H   0  0  0  0  0  0  0  0  0  0  0  0
    6.2531   -0.2449    0.3943 H   0  0  0  0  0  0  0  0  0  0  0  0
    2.2848    1.3121   -0.5148 H   0  0  0  0  0  0  0  0  0  0  0  0
    2.2134    3.1460   -2.0737 H   0  0  0  0  0  0  0  0  0  0  0  0
    6.1303    4.4092   -0.7504 H   0  0  0  0  0  0  0  0  0  0  0  0
    6.2008    2.5859    0.8002 H   0  0  0  0  0  0  0  0  0  0  0  0
    4.8193    5.6070   -4.4000 H   0  0  0  0  0  0  0  0  0  0  0  0
    5.6138    6.6978   -1.3308 H   0  0  0  0  0  0  0  0  0  0  0  0
    9.5092    8.0900   -2.4270 H   0  0  0  0  0  0  0  0  0  0  0  0
    7.6072    5.4946   -4.9715 H   0  0  0  0  0  0  0  0  0  0  0  0
    5.1729    2.3807   -2.8348 H   0  0  0  0  0  0  0  0  0  0  0  0
    5.3847    1.1430   -5.2641 H   0  0  0  0  0  0  0  0  0  0  0  0
    5.7724    0.4369   -3.6890 H   0  0  0  0  0  0  0  0  0  0  0  0
    8.1240    1.3266   -3.8621 H   0  0  0  0  0  0  0  0  0  0  0  0
    7.7785    1.9936   -5.4345 H   0  0  0  0  0  0  0  0  0  0  0  0
    7.4158    0.5315   -7.4173 H   0  0  0  0  0  0  0  0  0  0  0  0
    8.0907   -1.5884   -8.4953 H   0  0  0  0  0  0  0  0  0  0  0  0
    8.9486   -3.4742   -7.1072 H   0  0  0  0  0  0  0  0  0  0  0  0
    8.4422   -1.1306   -3.5628 H   0  0  0  0  0  0  0  0  0  0  0  0
    2.1998    5.5654   -0.7192 H   0  0  0  0  0  0  0  0  0  0  0  0
    0.4992    6.5631   -3.0907 H   0  0  0  0  0  0  0  0  0  0  0  0
   -0.0611    6.2916   -1.3420 H   0  0  0  0  0  0  0  0  0  0  0  0
  1  2  1  0  0  0  0
  1 36  1  0  0  0  0
  1 37  1  0  0  0  0
  1 38  1  0  0  0  0
  2  3  1  0  0  0  0
  2  4  1  0  0  0  0
  2  5  1  0  0  0  0
  3 39  1  0  0  0  0
  3 40  1  0  0  0  0
  3 41  1  0  0  0  0
  4 42  1  0  0  0  0
  4 43  1  0  0  0  0
  4 44  1  0  0  0  0
  5  6  1  0  0  0  0
  5 10  2  0  0  0  0
  6  7  2  0  0  0  0
  6 45  1  0  0  0  0
  7  8  1  0  0  0  0
  7 46  1  0  0  0  0
  8  9  2  0  0  0  0
  8 11  1  0  0  0  0
  9 10  1  0  0  0  0
  9 47  1  0  0  0  0
 10 48  1  0  0  0  0
 11 12  1  0  0  0  0
 11 32  1  0  0  0  0
 12 13  1  0  0  0  0
 12 20  1  0  0  0  0
 12 49  1  0  0  0  0
 13 14  1  0  0  0  0
 13 18  2  0  0  0  0
 14 15  2  0  0  0  0
 14 50  1  0  0  0  0
 15 16  1  0  0  0  0
 15 19  1  0  0  0  0
 16 17  2  0  0  0  0
 16 51  1  0  0  0  0
 17 18  1  0  0  0  0
 18 52  1  0  0  0  0
 20 21  2  0  0  0  0
 20 22  1  0  0  0  0
 22 23  1  0  0  0  0
 22 53  1  0  0  0  0
 23 24  1  0  0  0  0
 23 54  1  0  0  0  0
 23 55  1  0  0  0  0
 24 25  1  0  0  0  0
 24 56  1  0  0  0  0
 24 57  1  0  0  0  0
 25 26  1  0  0  0  0
 25 30  2  0  0  0  0
 26 27  2  0  0  0  0
 26 58  1  0  0  0  0
 27 28  1  0  0  0  0
 27 59  1  0  0  0  0
 28 29  2  0  0  0  0
 28 60  1  0  0  0  0
 29 30  1  0  0  0  0
 29 31  1  0  0  0  0
 30 61  1  0  0  0  0
 32 33  2  0  0  0  0
 32 34  1  0  0  0  0
 34 35  2  0  0  0  0
 34 62  1  0  0  0  0
 35 63  1  0  0  0  0
 35 64  1  0  0  0  0
M  END
$$$$
