
 OpenBabel07202414143D

 55 56  0  0  1  0  0  0  0  0999 V2000
    3.4127   -5.2015    3.7163 C   0  0  0  0  0  0  0  0  0  0  0  0
    2.8673   -3.8917    3.3546 N   0  0  0  0  0  0  0  0  0  0  0  0
    3.9742   -2.7648    2.7695 S   0  0  0  0  0  0  0  0  0  0  0  0
    3.2248   -1.5579    2.5157 O   0  0  0  0  0  0  0  0  0  0  0  0
    5.0968   -2.7868    3.6809 O   0  0  0  0  0  0  0  0  0  0  0  0
    4.4272   -3.4025    1.3510 O   0  0  0  0  0  0  0  0  0  0  0  0
    5.3942   -2.7091    0.5930 C   0  0  0  0  0  0  0  0  0  0  0  0
    6.7581   -2.5404    1.2701 C   0  0  0  0  0  0  0  0  0  0  0  0
    7.2465   -1.4153    1.3881 O   0  0  0  0  0  0  0  0  0  0  0  0
    7.4022   -3.6846    1.7188 N   0  0  0  0  0  0  0  0  0  0  0  0
    6.9641   -5.0582    1.4619 C   0  0  0  0  0  0  0  0  0  0  0  0
    6.9974   -5.8948    2.7504 C   0  0  0  0  0  0  0  0  0  0  0  0
    8.3133   -5.9023    3.4287 N   0  0  0  0  0  0  0  0  0  0  0  0
    9.3426   -6.5855    2.6181 C   0  0  0  0  0  0  0  0  0  0  0  0
    9.0117   -8.0248    2.2683 C   0  0  0  0  0  0  0  0  0  0  0  0
    8.8874   -8.9895    3.2789 C   0  0  0  0  0  0  0  0  0  0  0  0
    8.6281  -10.3241    2.9598 C   0  0  0  0  0  0  0  0  0  0  0  0
    8.4804  -10.7084    1.6274 C   0  0  0  0  0  0  0  0  0  0  0  0
    8.5859   -9.7536    0.6186 C   0  0  0  0  0  0  0  0  0  0  0  0
    8.3904  -10.2229   -1.0260 Cl  0  0  0  0  0  0  0  0  0  0  0  0
    8.8520   -8.4198    0.9301 C   0  0  0  0  0  0  0  0  0  0  0  0
    8.6600   -4.4697    3.7413 C   0  0  1  0  0  0  0  0  0  0  0  0
    9.9501   -4.3556    4.5881 C   0  0  0  0  0  0  0  0  0  0  0  0
   10.3779   -2.9344    5.0189 C   0  0  0  0  0  0  0  0  0  0  0  0
    9.3042   -2.1848    5.8053 C   0  0  0  0  0  0  0  0  0  0  0  0
   11.6581   -3.0218    5.8583 C   0  0  0  0  0  0  0  0  0  0  0  0
    8.6535   -3.5533    2.4813 C   0  0  0  0  0  0  0  0  0  0  0  0
    2.6013   -5.8404    4.0725 H   0  0  0  0  0  0  0  0  0  0  0  0
    4.1369   -5.1132    4.5311 H   0  0  0  0  0  0  0  0  0  0  0  0
    3.8711   -5.6888    2.8499 H   0  0  0  0  0  0  0  0  0  0  0  0
    2.3233   -3.4533    4.0979 H   0  0  0  0  0  0  0  0  0  0  0  0
    5.0054   -1.7210    0.3216 H   0  0  0  0  0  0  0  0  0  0  0  0
    5.5524   -3.2515   -0.3466 H   0  0  0  0  0  0  0  0  0  0  0  0
    7.6365   -5.4721    0.7034 H   0  0  0  0  0  0  0  0  0  0  0  0
    5.9656   -5.1054    1.0293 H   0  0  0  0  0  0  0  0  0  0  0  0
    6.6438   -6.9118    2.5506 H   0  0  0  0  0  0  0  0  0  0  0  0
    6.2653   -5.4822    3.4584 H   0  0  0  0  0  0  0  0  0  0  0  0
   10.2851   -6.6336    3.1740 H   0  0  0  0  0  0  0  0  0  0  0  0
    9.5675   -6.0367    1.6970 H   0  0  0  0  0  0  0  0  0  0  0  0
    8.9965   -8.6966    4.3216 H   0  0  0  0  0  0  0  0  0  0  0  0
    8.5459  -11.0641    3.7518 H   0  0  0  0  0  0  0  0  0  0  0  0
    8.2864  -11.7494    1.3835 H   0  0  0  0  0  0  0  0  0  0  0  0
    8.9410   -7.6918    0.1276 H   0  0  0  0  0  0  0  0  0  0  0  0
    7.8479   -4.1129    4.3918 H   0  0  0  0  0  0  0  0  0  0  0  0
   10.7934   -4.7848    4.0357 H   0  0  0  0  0  0  0  0  0  0  0  0
    9.8219   -4.9715    5.4894 H   0  0  0  0  0  0  0  0  0  0  0  0
   10.6187   -2.3502    4.1230 H   0  0  0  0  0  0  0  0  0  0  0  0
    8.9974   -2.7409    6.6969 H   0  0  0  0  0  0  0  0  0  0  0  0
    8.4160   -1.9944    5.1958 H   0  0  0  0  0  0  0  0  0  0  0  0
    9.6814   -1.2078    6.1343 H   0  0  0  0  0  0  0  0  0  0  0  0
   11.4909   -3.5878    6.7811 H   0  0  0  0  0  0  0  0  0  0  0  0
   12.0135   -2.0231    6.1337 H   0  0  0  0  0  0  0  0  0  0  0  0
   12.4584   -3.5161    5.2975 H   0  0  0  0  0  0  0  0  0  0  0  0
    9.4779   -3.8065    1.8048 H   0  0  0  0  0  0  0  0  0  0  0  0
    8.7910   -2.5101    2.7784 H   0  0  0  0  0  0  0  0  0  0  0  0
  1  2  1  0  0  0  0
  1 28  1  0  0  0  0
  1 29  1  0  0  0  0
  1 30  1  0  0  0  0
  2  3  1  0  0  0  0
  2 31  1  0  0  0  0
  3  4  2  0  0  0  0
  3  5  2  0  0  0  0
  3  6  1  0  0  0  0
  6  7  1  0  0  0  0
  7  8  1  0  0  0  0
  7 32  1  0  0  0  0
  7 33  1  0  0  0  0
  8  9  2  0  0  0  0
  8 10  1  0  0  0  0
 10 11  1  0  0  0  0
 10 27  1  0  0  0  0
 11 12  1  0  0  0  0
 11 34  1  0  0  0  0
 11 35  1  0  0  0  0
 12 13  1  0  0  0  0
 12 36  1  0  0  0  0
 12 37  1  0  0  0  0
 13 14  1  0  0  0  0
 13 22  1  0  0  0  0
 14 15  1  0  0  0  0
 14 38  1  0  0  0  0
 14 39  1  0  0  0  0
 15 16  1  0  0  0  0
 15 21  2  0  0  0  0
 16 17  2  0  0  0  0
 16 40  1  0  0  0  0
 17 18  1  0  0  0  0
 17 41  1  0  0  0  0
 18 19  2  0  0  0  0
 18 42  1  0  0  0  0
 19 20  1  0  0  0  0
 19 21  1  0  0  0  0
 21 43  1  0  0  0  0
 22 23  1  0  0  0  0
 22 27  1  0  0  0  0
 22 44  1  1  0  0  0
 23 24  1  0  0  0  0
 23 45  1  0  0  0  0
 23 46  1  0  0  0  0
 24 25  1  0  0  0  0
 24 26  1  0  0  0  0
 24 47  1  0  0  0  0
 25 48  1  0  0  0  0
 25 49  1  0  0  0  0
 25 50  1  0  0  0  0
 26 51  1  0  0  0  0
 26 52  1  0  0  0  0
 26 53  1  0  0  0  0
 27 54  1  0  0  0  0
 27 55  1  0  0  0  0
M  END
$$$$
