
 OpenBabel07202414163D

 37 39  0  0  0  0  0  0  0  0999 V2000
   -0.1027   -5.6779    4.1363 C   0  0  0  0  0  0  0  0  0  0  0  0
   -0.7934   -4.8583    3.0828 C   0  0  0  0  0  0  0  0  0  0  0  0
   -1.8636   -4.0236    3.4405 C   0  0  0  0  0  0  0  0  0  0  0  0
   -2.5375   -3.2588    2.4794 C   0  0  0  0  0  0  0  0  0  0  0  0
   -2.1687   -3.3203    1.1323 C   0  0  0  0  0  0  0  0  0  0  0  0
   -2.8301   -2.4910    0.0534 C   0  0  0  0  0  0  0  0  0  0  0  0
   -4.2859   -2.1355    0.2883 C   0  0  0  0  0  0  0  0  0  0  0  0
   -4.6224   -1.0028    0.6291 O   0  0  0  0  0  0  0  0  0  0  0  0
   -5.1579   -3.1951    0.1091 N   0  0  0  0  0  0  0  0  0  0  0  0
   -6.5619   -3.0642    0.2583 C   0  0  0  0  0  0  0  0  0  0  0  0
   -7.2423   -1.9591   -0.2598 C   0  0  0  0  0  0  0  0  0  0  0  0
   -8.5825   -1.7836   -0.1943 N   0  0  0  0  0  0  0  0  0  0  0  0
   -9.2783   -2.7413    0.4541 C   0  0  0  0  0  0  0  0  0  0  0  0
   -8.7131   -3.8790    1.0365 C   0  0  0  0  0  0  0  0  0  0  0  0
   -9.4991   -4.8108    1.7366 C   0  0  0  0  0  0  0  0  0  0  0  0
   -8.9159   -5.9180    2.3477 C   0  0  0  0  0  0  0  0  0  0  0  0
   -7.5438   -6.1117    2.2577 C   0  0  0  0  0  0  0  0  0  0  0  0
   -6.7542   -5.2013    1.5525 C   0  0  0  0  0  0  0  0  0  0  0  0
   -7.3152   -4.0620    0.9242 C   0  0  0  0  0  0  0  0  0  0  0  0
   -1.0714   -4.1289    0.7796 C   0  0  0  0  0  0  0  0  0  0  0  0
   -0.3949   -4.8883    1.7409 C   0  0  0  0  0  0  0  0  0  0  0  0
    0.9442   -5.8459    1.2163 Cl  0  0  0  0  0  0  0  0  0  0  0  0
   -0.5814   -5.5617    5.1148 H   0  0  0  0  0  0  0  0  0  0  0  0
    0.9425   -5.3697    4.2412 H   0  0  0  0  0  0  0  0  0  0  0  0
   -0.1458   -6.7420    3.8802 H   0  0  0  0  0  0  0  0  0  0  0  0
   -2.1779   -3.9521    4.4802 H   0  0  0  0  0  0  0  0  0  0  0  0
   -3.3421   -2.6012    2.8066 H   0  0  0  0  0  0  0  0  0  0  0  0
   -2.7793   -3.0207   -0.9069 H   0  0  0  0  0  0  0  0  0  0  0  0
   -2.2695   -1.5562   -0.0661 H   0  0  0  0  0  0  0  0  0  0  0  0
   -4.7617   -4.1217    0.1948 H   0  0  0  0  0  0  0  0  0  0  0  0
   -6.7193   -1.1731   -0.7981 H   0  0  0  0  0  0  0  0  0  0  0  0
  -10.3488   -2.5570    0.5094 H   0  0  0  0  0  0  0  0  0  0  0  0
  -10.5742   -4.6607    1.8328 H   0  0  0  0  0  0  0  0  0  0  0  0
   -9.5281   -6.6130    2.9133 H   0  0  0  0  0  0  0  0  0  0  0  0
   -7.0791   -6.9606    2.7535 H   0  0  0  0  0  0  0  0  0  0  0  0
   -5.6833   -5.3818    1.5368 H   0  0  0  0  0  0  0  0  0  0  0  0
   -0.7301   -4.1591   -0.2541 H   0  0  0  0  0  0  0  0  0  0  0  0
  1  2  1  0  0  0  0
  1 23  1  0  0  0  0
  1 24  1  0  0  0  0
  1 25  1  0  0  0  0
  2  3  1  0  0  0  0
  2 21  2  0  0  0  0
  3  4  2  0  0  0  0
  3 26  1  0  0  0  0
  4  5  1  0  0  0  0
  4 27  1  0  0  0  0
  5  6  1  0  0  0  0
  5 20  2  0  0  0  0
  6  7  1  0  0  0  0
  6 28  1  0  0  0  0
  6 29  1  0  0  0  0
  7  8  2  0  0  0  0
  7  9  1  0  0  0  0
  9 10  1  0  0  0  0
  9 30  1  0  0  0  0
 10 11  1  0  0  0  0
 10 19  2  0  0  0  0
 11 12  2  0  0  0  0
 11 31  1  0  0  0  0
 12 13  1  0  0  0  0
 13 14  2  0  0  0  0
 13 32  1  0  0  0  0
 14 15  1  0  0  0  0
 14 19  1  0  0  0  0
 15 16  2  0  0  0  0
 15 33  1  0  0  0  0
 16 17  1  0  0  0  0
 16 34  1  0  0  0  0
 17 18  2  0  0  0  0
 17 35  1  0  0  0  0
 18 19  1  0  0  0  0
 18 36  1  0  0  0  0
 20 21  1  0  0  0  0
 20 37  1  0  0  0  0
 21 22  1  0  0  0  0
M  END
$$$$
