
 OpenBabel07202414143D

 65 70  0  0  1  0  0  0  0  0999 V2000
    8.2724    0.4620    6.0809 C   0  0  0  0  0  0  0  0  0  0  0  0
    7.7354    0.5009    4.7606 O   0  0  0  0  0  0  0  0  0  0  0  0
    7.3330   -0.7964    4.2370 C   0  0  0  0  0  0  0  0  0  0  0  0
    6.2487   -1.5090    4.9835 C   0  0  0  0  0  0  0  0  0  0  0  0
    5.0009   -0.7816    5.0599 N   0  0  0  0  0  0  0  0  0  0  0  0
    4.0230   -1.2893    5.8901 C   0  0  0  0  0  0  0  0  0  0  0  0
    4.2487   -2.2873    6.5938 O   0  0  0  0  0  0  0  0  0  0  0  0
    2.6909   -0.5471    5.8925 C   0  0  0  0  0  0  0  0  0  0  0  0
    1.6741   -1.2115    6.7336 N   0  0  0  0  0  0  0  0  0  0  0  0
    1.2137   -2.5158    6.2378 C   0  0  0  0  0  0  0  0  0  0  0  0
    0.1603   -2.4559    5.1526 C   0  0  0  0  0  0  0  0  0  0  0  0
   -0.0128   -3.5632    4.3025 C   0  0  0  0  0  0  0  0  0  0  0  0
   -0.9895   -3.5583    3.3052 C   0  0  0  0  0  0  0  0  0  0  0  0
   -1.8259   -2.4587    3.1684 C   0  0  0  0  0  0  0  0  0  0  0  0
   -3.0238   -2.4277    1.9347 Cl  0  0  0  0  0  0  0  0  0  0  0  0
   -1.6925   -1.3741    4.0231 C   0  0  0  0  0  0  0  0  0  0  0  0
   -0.6989   -1.3488    5.0237 C   0  0  0  0  0  0  0  0  0  0  0  0
   -0.5004   -0.1132    5.9108 C   0  0  3  0  0  0  0  0  0  0  0  0
   -1.8079    0.3013    6.5973 C   0  0  0  0  0  0  0  0  0  0  0  0
   -2.3238    1.4891    5.8317 C   0  0  0  0  0  0  0  0  0  0  0  0
   -1.4221    1.7521    4.7539 N   0  0  0  0  0  0  0  0  0  0  0  0
   -1.6936    2.6889    3.7015 C   0  0  0  0  0  0  0  0  0  0  0  0
   -0.7897    2.7749    2.6296 C   0  0  0  0  0  0  0  0  0  0  0  0
   -0.8020    3.7271    1.6735 N   0  0  0  0  0  0  0  0  0  0  0  0
   -1.8250    4.5965    1.7180 C   0  0  0  0  0  0  0  0  0  0  0  0
   -2.9122    4.4929    2.5817 C   0  0  0  0  0  0  0  0  0  0  0  0
   -4.0346    5.3273    2.3844 C   0  0  0  0  0  0  0  0  0  0  0  0
   -5.1437    5.2528    3.2202 C   0  0  0  0  0  0  0  0  0  0  0  0
   -5.1167    4.3908    4.2928 C   0  0  0  0  0  0  0  0  0  0  0  0
   -3.9990    3.5762    4.4967 C   0  0  0  0  0  0  0  0  0  0  0  0
   -2.8593    3.5444    3.6313 C   0  0  0  0  0  0  0  0  0  0  0  0
   -0.1983    1.0918    4.9913 C   0  0  0  0  0  0  0  0  0  0  0  0
    0.8826    1.3482    4.4860 O   0  0  0  0  0  0  0  0  0  0  0  0
    0.5292   -0.3556    7.0371 C   0  0  0  0  0  0  0  0  0  0  0  0
    8.4221   -1.6027    3.5681 C   0  0  0  0  0  0  0  0  0  0  0  0
    7.3847   -0.9078    2.7339 C   0  0  0  0  0  0  0  0  0  0  0  0
    8.5519    1.4787    6.3701 H   0  0  0  0  0  0  0  0  0  0  0  0
    9.1634   -0.1722    6.1230 H   0  0  0  0  0  0  0  0  0  0  0  0
    7.5238    0.1071    6.7942 H   0  0  0  0  0  0  0  0  0  0  0  0
    6.5840   -1.7362    6.0037 H   0  0  0  0  0  0  0  0  0  0  0  0
    6.0247   -2.4763    4.5089 H   0  0  0  0  0  0  0  0  0  0  0  0
    4.7524   -0.1385    4.3185 H   0  0  0  0  0  0  0  0  0  0  0  0
    2.3554   -0.4236    4.8614 H   0  0  0  0  0  0  0  0  0  0  0  0
    2.9068    0.4431    6.3263 H   0  0  0  0  0  0  0  0  0  0  0  0
    0.7760   -3.0646    7.0825 H   0  0  0  0  0  0  0  0  0  0  0  0
    2.0558   -3.1314    5.8974 H   0  0  0  0  0  0  0  0  0  0  0  0
    0.6231   -4.4397    4.4118 H   0  0  0  0  0  0  0  0  0  0  0  0
   -1.0918   -4.4114    2.6395 H   0  0  0  0  0  0  0  0  0  0  0  0
   -2.3719   -0.5317    3.8849 H   0  0  0  0  0  0  0  0  0  0  0  0
   -1.6709    0.5984    7.6456 H   0  0  0  0  0  0  0  0  0  0  0  0
   -2.5540   -0.5031    6.6115 H   0  0  0  0  0  0  0  0  0  0  0  0
   -2.3271    2.3714    6.4799 H   0  0  0  0  0  0  0  0  0  0  0  0
   -3.3147    1.2289    5.4584 H   0  0  0  0  0  0  0  0  0  0  0  0
    0.0025    2.0438    2.4798 H   0  0  0  0  0  0  0  0  0  0  0  0
   -1.7460    5.4148    1.0079 H   0  0  0  0  0  0  0  0  0  0  0  0
   -4.0671    6.0138    1.5444 H   0  0  0  0  0  0  0  0  0  0  0  0
   -6.0193    5.8712    3.0386 H   0  0  0  0  0  0  0  0  0  0  0  0
   -5.9569    4.3323    4.9810 H   0  0  0  0  0  0  0  0  0  0  0  0
   -4.0875    2.9605    5.3751 H   0  0  0  0  0  0  0  0  0  0  0  0
    0.0100   -0.8634    7.8674 H   0  0  0  0  0  0  0  0  0  0  0  0
    0.8653    0.5952    7.4720 H   0  0  0  0  0  0  0  0  0  0  0  0
    8.3744   -2.6832    3.6353 H   0  0  0  0  0  0  0  0  0  0  0  0
    9.4306   -1.2064    3.5464 H   0  0  0  0  0  0  0  0  0  0  0  0
    6.6423   -1.5215    2.2386 H   0  0  0  0  0  0  0  0  0  0  0  0
    7.6941   -0.0392    2.1635 H   0  0  0  0  0  0  0  0  0  0  0  0
  1  2  1  0  0  0  0
  1 37  1  0  0  0  0
  1 38  1  0  0  0  0
  1 39  1  0  0  0  0
  2  3  1  0  0  0  0
  3  4  1  0  0  0  0
  3 35  1  0  0  0  0
  3 36  1  0  0  0  0
  4  5  1  0  0  0  0
  4 40  1  0  0  0  0
  4 41  1  0  0  0  0
  5  6  1  0  0  0  0
  5 42  1  0  0  0  0
  6  7  2  0  0  0  0
  6  8  1  0  0  0  0
  8  9  1  0  0  0  0
  8 43  1  0  0  0  0
  8 44  1  0  0  0  0
  9 10  1  0  0  0  0
  9 34  1  0  0  0  0
 10 11  1  0  0  0  0
 10 45  1  0  0  0  0
 10 46  1  0  0  0  0
 11 12  1  0  0  0  0
 11 17  2  0  0  0  0
 12 13  2  0  0  0  0
 12 47  1  0  0  0  0
 13 14  1  0  0  0  0
 13 48  1  0  0  0  0
 14 15  1  0  0  0  0
 14 16  2  0  0  0  0
 16 17  1  0  0  0  0
 16 49  1  0  0  0  0
 17 18  1  0  0  0  0
 18 19  1  0  0  0  0
 18 32  1  0  0  0  0
 18 34  1  0  0  0  0
 19 20  1  0  0  0  0
 19 50  1  0  0  0  0
 19 51  1  0  0  0  0
 20 21  1  0  0  0  0
 20 52  1  0  0  0  0
 20 53  1  0  0  0  0
 21 22  1  0  0  0  0
 21 32  1  0  0  0  0
 22 23  1  0  0  0  0
 22 31  2  0  0  0  0
 23 24  2  0  0  0  0
 23 54  1  0  0  0  0
 24 25  1  0  0  0  0
 25 26  2  0  0  0  0
 25 55  1  0  0  0  0
 26 27  1  0  0  0  0
 26 31  1  0  0  0  0
 27 28  2  0  0  0  0
 27 56  1  0  0  0  0
 28 29  1  0  0  0  0
 28 57  1  0  0  0  0
 29 30  2  0  0  0  0
 29 58  1  0  0  0  0
 30 31  1  0  0  0  0
 30 59  1  0  0  0  0
 32 33  2  0  0  0  0
 34 60  1  0  0  0  0
 34 61  1  0  0  0  0
 35 36  1  0  0  0  0
 35 62  1  0  0  0  0
 35 63  1  0  0  0  0
 36 64  1  0  0  0  0
 36 65  1  0  0  0  0
M  END
$$$$
