
 OpenBabel07202414133D

 62 67  0  0  0  0  0  0  0  0999 V2000
    7.4114    9.9868   -0.7307 C   0  0  0  0  0  0  0  0  0  0  0  0
    6.4389    9.9747    0.4357 C   0  0  0  0  0  0  0  0  0  0  0  0
    5.0543   10.1428    0.0282 N   0  0  0  0  0  0  0  0  0  0  0  0
    4.3997   11.3570   -0.0724 C   0  0  0  0  0  0  0  0  0  0  0  0
    3.0588   11.0767   -0.3446 C   0  0  0  0  0  0  0  0  0  0  0  0
    2.1534   12.1511   -0.4825 C   0  0  0  0  0  0  0  0  0  0  0  0
    2.6112   13.4638   -0.3575 C   0  0  0  0  0  0  0  0  0  0  0  0
    3.9512   13.7231   -0.0880 C   0  0  0  0  0  0  0  0  0  0  0  0
    4.8636   12.6773    0.0632 C   0  0  0  0  0  0  0  0  0  0  0  0
    2.9187    9.6549   -0.4240 C   0  0  0  0  0  0  0  0  0  0  0  0
    4.1802    9.0958   -0.2276 C   0  0  0  0  0  0  0  0  0  0  0  0
    4.3917    7.7120   -0.2939 C   0  0  0  0  0  0  0  0  0  0  0  0
    3.2793    6.8861   -0.5054 C   0  0  0  0  0  0  0  0  0  0  0  0
    1.9931    7.4062   -0.6813 C   0  0  0  0  0  0  0  0  0  0  0  0
    0.9071    6.5023   -0.7967 N   0  0  0  0  0  0  0  0  0  0  0  0
   -0.2904    6.6652   -1.5319 C   0  0  0  0  0  0  0  0  0  0  0  0
   -1.4812    6.0478   -1.0949 C   0  0  0  0  0  0  0  0  0  0  0  0
   -2.6673    6.1137   -1.8576 C   0  0  0  0  0  0  0  0  0  0  0  0
   -3.9945    5.5327   -1.4150 C   0  0  0  0  0  0  0  0  0  0  0  0
   -3.9466    4.3158   -0.5103 C   0  0  0  0  0  0  0  0  0  0  0  0
   -4.3485    4.3623    0.6496 O   0  0  0  0  0  0  0  0  0  0  0  0
   -3.4711    3.1686   -1.1225 N   0  0  0  0  0  0  0  0  0  0  0  0
   -2.7856    2.1304   -0.4302 C   0  0  0  0  0  0  0  0  0  0  0  0
   -2.1334    2.4325    0.7586 C   0  0  0  0  0  0  0  0  0  0  0  0
   -0.8859    2.0030    1.0230 N   0  0  0  0  0  0  0  0  0  0  0  0
   -0.3632    1.1141    0.1442 C   0  0  0  0  0  0  0  0  0  0  0  0
   -1.0976    0.4845   -0.8562 C   0  0  0  0  0  0  0  0  0  0  0  0
   -0.5911   -0.6400   -1.5479 C   0  0  0  0  0  0  0  0  0  0  0  0
   -1.3956   -1.2948   -2.4828 C   0  0  0  0  0  0  0  0  0  0  0  0
   -2.6603   -0.8077   -2.7907 C   0  0  0  0  0  0  0  0  0  0  0  0
   -3.1339    0.3541   -2.1562 C   0  0  0  0  0  0  0  0  0  0  0  0
   -2.3553    1.0028   -1.1621 C   0  0  0  0  0  0  0  0  0  0  0  0
   -2.6358    6.8442   -3.0578 C   0  0  0  0  0  0  0  0  0  0  0  0
   -1.4663    7.4519   -3.4975 C   0  0  0  0  0  0  0  0  0  0  0  0
   -1.4576    8.3196   -4.9840 Cl  0  0  0  0  0  0  0  0  0  0  0  0
   -0.2947    7.3573   -2.7478 C   0  0  0  0  0  0  0  0  0  0  0  0
    1.8152    8.7981   -0.6447 C   0  0  0  0  0  0  0  0  0  0  0  0
    8.4196    9.7381   -0.3818 H   0  0  0  0  0  0  0  0  0  0  0  0
    7.4523   10.9754   -1.1990 H   0  0  0  0  0  0  0  0  0  0  0  0
    7.1289    9.2603   -1.4987 H   0  0  0  0  0  0  0  0  0  0  0  0
    6.6842   10.7718    1.1478 H   0  0  0  0  0  0  0  0  0  0  0  0
    6.5174    9.0320    0.9873 H   0  0  0  0  0  0  0  0  0  0  0  0
    1.1058   11.9579   -0.6945 H   0  0  0  0  0  0  0  0  0  0  0  0
    1.9135   14.2904   -0.4715 H   0  0  0  0  0  0  0  0  0  0  0  0
    4.2960   14.7409    0.0059 H   0  0  0  0  0  0  0  0  0  0  0  0
    5.9111   12.8914    0.2687 H   0  0  0  0  0  0  0  0  0  0  0  0
    5.3787    7.2777   -0.1771 H   0  0  0  0  0  0  0  0  0  0  0  0
    3.4297    5.8094   -0.5495 H   0  0  0  0  0  0  0  0  0  0  0  0
    0.7757    6.0005    0.0783 H   0  0  0  0  0  0  0  0  0  0  0  0
   -1.4807    5.5222   -0.1417 H   0  0  0  0  0  0  0  0  0  0  0  0
   -4.5818    5.2471   -2.2965 H   0  0  0  0  0  0  0  0  0  0  0  0
   -4.5542    6.3170   -0.8912 H   0  0  0  0  0  0  0  0  0  0  0  0
   -3.1688    3.2525   -2.0891 H   0  0  0  0  0  0  0  0  0  0  0  0
   -2.5302    3.1368    1.4863 H   0  0  0  0  0  0  0  0  0  0  0  0
    0.6930    0.9033    0.2962 H   0  0  0  0  0  0  0  0  0  0  0  0
    0.3839   -1.0374   -1.3190 H   0  0  0  0  0  0  0  0  0  0  0  0
   -1.0320   -2.2066   -2.9578 H   0  0  0  0  0  0  0  0  0  0  0  0
   -3.2908   -1.3378   -3.4981 H   0  0  0  0  0  0  0  0  0  0  0  0
   -4.1437    0.6937   -2.3834 H   0  0  0  0  0  0  0  0  0  0  0  0
   -3.5407    6.9465   -3.6571 H   0  0  0  0  0  0  0  0  0  0  0  0
    0.6200    7.8104   -3.1215 H   0  0  0  0  0  0  0  0  0  0  0  0
    0.8250    9.2288   -0.7564 H   0  0  0  0  0  0  0  0  0  0  0  0
  1  2  1  0  0  0  0
  1 38  1  0  0  0  0
  1 39  1  0  0  0  0
  1 40  1  0  0  0  0
  2  3  1  0  0  0  0
  2 41  1  0  0  0  0
  2 42  1  0  0  0  0
  3  4  1  0  0  0  0
  3 11  1  0  0  0  0
  4  5  2  0  0  0  0
  4  9  1  0  0  0  0
  5  6  1  0  0  0  0
  5 10  1  0  0  0  0
  6  7  2  0  0  0  0
  6 43  1  0  0  0  0
  7  8  1  0  0  0  0
  7 44  1  0  0  0  0
  8  9  2  0  0  0  0
  8 45  1  0  0  0  0
  9 46  1  0  0  0  0
 10 11  2  0  0  0  0
 10 37  1  0  0  0  0
 11 12  1  0  0  0  0
 12 13  2  0  0  0  0
 12 47  1  0  0  0  0
 13 14  1  0  0  0  0
 13 48  1  0  0  0  0
 14 15  1  0  0  0  0
 14 37  2  0  0  0  0
 15 16  1  0  0  0  0
 15 49  1  0  0  0  0
 16 17  2  0  0  0  0
 16 36  1  0  0  0  0
 17 18  1  0  0  0  0
 17 50  1  0  0  0  0
 18 19  1  0  0  0  0
 18 33  2  0  0  0  0
 19 20  1  0  0  0  0
 19 51  1  0  0  0  0
 19 52  1  0  0  0  0
 20 21  2  0  0  0  0
 20 22  1  0  0  0  0
 22 23  1  0  0  0  0
 22 53  1  0  0  0  0
 23 24  2  0  0  0  0
 23 32  1  0  0  0  0
 24 25  1  0  0  0  0
 24 54  1  0  0  0  0
 25 26  2  0  0  0  0
 26 27  1  0  0  0  0
 26 55  1  0  0  0  0
 27 28  2  0  0  0  0
 27 32  1  0  0  0  0
 28 29  1  0  0  0  0
 28 56  1  0  0  0  0
 29 30  2  0  0  0  0
 29 57  1  0  0  0  0
 30 31  1  0  0  0  0
 30 58  1  0  0  0  0
 31 32  2  0  0  0  0
 31 59  1  0  0  0  0
 33 34  1  0  0  0  0
 33 60  1  0  0  0  0
 34 35  1  0  0  0  0
 34 36  2  0  0  0  0
 36 61  1  0  0  0  0
 37 62  1  0  0  0  0
M  END
$$$$
