
 OpenBabel07202414193D

 67 71  0  0  1  0  0  0  0  0999 V2000
   -2.6777   -1.6556   -5.7805 F   0  0  0  0  0  0  0  0  0  0  0  0
   -3.4315   -1.0612   -4.8469 C   0  0  0  0  0  0  0  0  0  0  0  0
   -4.5005   -0.2655   -5.2359 C   0  0  0  0  0  0  0  0  0  0  0  0
   -5.2642    0.3711   -4.2605 C   0  0  0  0  0  0  0  0  0  0  0  0
   -4.9629    0.1917   -2.9044 C   0  0  0  0  0  0  0  0  0  0  0  0
   -3.8996   -0.6332   -2.5056 C   0  0  0  0  0  0  0  0  0  0  0  0
   -3.5244   -0.7868   -1.0476 C   0  0  0  0  0  0  0  0  0  0  0  0
   -4.6320   -1.2839   -0.1050 C   0  0  0  0  0  0  0  0  0  0  0  0
   -5.0883   -2.6496   -0.3400 N   0  0  0  0  0  0  0  0  0  0  0  0
   -6.0556   -3.2241    0.4882 C   0  0  0  0  0  0  0  0  0  0  0  0
   -6.5578   -2.6006    1.4191 O   0  0  0  0  0  0  0  0  0  0  0  0
   -6.4929   -4.6783    0.1226 C   0  0  3  0  0  0  0  0  0  0  0  0
   -6.3147   -5.5667    1.3311 N   0  0  0  0  0  0  0  0  0  0  0  0
   -7.2416   -5.6947    2.4207 C   0  0  0  0  0  0  0  0  0  0  0  0
   -6.9970   -6.3628    3.4251 O   0  0  0  0  0  0  0  0  0  0  0  0
   -8.5461   -5.0903    2.4017 C   0  0  0  0  0  0  0  0  0  0  0  0
   -9.7315   -5.6765    2.8179 C   0  0  0  0  0  0  0  0  0  0  0  0
  -10.7619   -4.7782    2.8177 N   0  0  0  0  0  0  0  0  0  0  0  0
  -10.2143   -3.6443    2.4590 C   0  0  0  0  0  0  0  0  0  0  0  0
   -8.8843   -3.7771    2.2115 N   0  0  0  0  0  0  0  0  0  0  0  0
   -4.9973   -6.2234    1.4718 C   0  0  0  0  0  0  0  0  0  0  0  0
   -4.8292   -7.3287    2.3185 C   0  0  0  0  0  0  0  0  0  0  0  0
   -3.5879   -7.9169    2.5692 C   0  0  0  0  0  0  0  0  0  0  0  0
   -2.4618   -7.5207    1.8671 C   0  0  0  0  0  0  0  0  0  0  0  0
   -1.2431   -8.1525    1.9329 O   0  0  0  0  0  0  0  0  0  0  0  0
   -1.2603   -9.4569    2.5474 C   0  0  3  0  0  0  0  0  0  0  0  0
    0.1374  -10.0329    2.6029 C   0  0  0  0  0  0  0  0  0  0  0  0
    0.2736  -10.7486    1.2790 C   0  0  0  0  0  0  0  0  0  0  0  0
   -1.0298  -11.1970    0.9026 O   0  0  0  0  0  0  0  0  0  0  0  0
   -1.9980  -10.4932    1.6946 C   0  0  0  0  0  0  0  0  0  0  0  0
   -2.5869   -6.4483    0.9886 C   0  0  0  0  0  0  0  0  0  0  0  0
   -3.8330   -5.8042    0.7999 C   0  0  0  0  0  0  0  0  0  0  0  0
   -7.8227   -4.7139   -0.6423 C   0  0  0  0  0  0  0  0  0  0  0  0
   -8.1987   -3.6621   -1.4998 C   0  0  0  0  0  0  0  0  0  0  0  0
   -9.3716   -3.7246   -2.2508 C   0  0  0  0  0  0  0  0  0  0  0  0
  -10.1506   -4.8596   -2.1375 C   0  0  0  0  0  0  0  0  0  0  0  0
   -9.8164   -5.9086   -1.3604 N   0  0  0  0  0  0  0  0  0  0  0  0
   -8.6668   -5.8185   -0.6459 C   0  0  0  0  0  0  0  0  0  0  0  0
   -3.1239   -1.2462   -3.5009 C   0  0  0  0  0  0  0  0  0  0  0  0
   -4.7165   -0.1303   -6.2913 H   0  0  0  0  0  0  0  0  0  0  0  0
   -6.0862    1.0191   -4.5557 H   0  0  0  0  0  0  0  0  0  0  0  0
   -5.5546    0.7302   -2.1654 H   0  0  0  0  0  0  0  0  0  0  0  0
   -3.1858    0.1982   -0.6978 H   0  0  0  0  0  0  0  0  0  0  0  0
   -2.6575   -1.4536   -0.9600 H   0  0  0  0  0  0  0  0  0  0  0  0
   -5.5074   -0.6267   -0.1397 H   0  0  0  0  0  0  0  0  0  0  0  0
   -4.2497   -1.2549    0.9226 H   0  0  0  0  0  0  0  0  0  0  0  0
   -4.7261   -3.1490   -1.1451 H   0  0  0  0  0  0  0  0  0  0  0  0
   -5.8012   -5.0530   -0.6433 H   0  0  0  0  0  0  0  0  0  0  0  0
   -9.8755   -6.7031    3.1392 H   0  0  0  0  0  0  0  0  0  0  0  0
  -10.7272   -2.6963    2.3811 H   0  0  0  0  0  0  0  0  0  0  0  0
   -8.2317   -3.0267    2.0112 H   0  0  0  0  0  0  0  0  0  0  0  0
   -5.6596   -7.8136    2.8189 H   0  0  0  0  0  0  0  0  0  0  0  0
   -3.5740   -8.7109    3.3067 H   0  0  0  0  0  0  0  0  0  0  0  0
   -1.6441   -9.3746    3.5705 H   0  0  0  0  0  0  0  0  0  0  0  0
    0.1848  -10.7743    3.4115 H   0  0  0  0  0  0  0  0  0  0  0  0
    0.9278   -9.2955    2.7597 H   0  0  0  0  0  0  0  0  0  0  0  0
    0.9398  -11.6137    1.3461 H   0  0  0  0  0  0  0  0  0  0  0  0
    0.6452  -10.0797    0.4974 H   0  0  0  0  0  0  0  0  0  0  0  0
   -2.4938  -11.2328    2.3314 H   0  0  0  0  0  0  0  0  0  0  0  0
   -2.7410  -10.0684    1.0138 H   0  0  0  0  0  0  0  0  0  0  0  0
   -1.7146   -6.1067    0.4351 H   0  0  0  0  0  0  0  0  0  0  0  0
   -3.8219   -4.9587    0.1248 H   0  0  0  0  0  0  0  0  0  0  0  0
   -7.5828   -2.7694   -1.6128 H   0  0  0  0  0  0  0  0  0  0  0  0
   -9.6643   -2.9169   -2.9116 H   0  0  0  0  0  0  0  0  0  0  0  0
  -11.0813   -4.9626   -2.6895 H   0  0  0  0  0  0  0  0  0  0  0  0
   -8.4640   -6.7024   -0.0469 H   0  0  0  0  0  0  0  0  0  0  0  0
   -2.2582   -1.8529   -3.2489 H   0  0  0  0  0  0  0  0  0  0  0  0
  1  2  1  0  0  0  0
  2  3  1  0  0  0  0
  2 39  2  0  0  0  0
  3  4  2  0  0  0  0
  3 40  1  0  0  0  0
  4  5  1  0  0  0  0
  4 41  1  0  0  0  0
  5  6  2  0  0  0  0
  5 42  1  0  0  0  0
  6  7  1  0  0  0  0
  6 39  1  0  0  0  0
  7  8  1  0  0  0  0
  7 43  1  0  0  0  0
  7 44  1  0  0  0  0
  8  9  1  0  0  0  0
  8 45  1  0  0  0  0
  8 46  1  0  0  0  0
  9 10  1  0  0  0  0
  9 47  1  0  0  0  0
 10 11  2  0  0  0  0
 10 12  1  0  0  0  0
 12 13  1  0  0  0  0
 12 33  1  0  0  0  0
 12 48  1  0  0  0  0
 13 14  1  0  0  0  0
 13 21  1  0  0  0  0
 14 15  2  0  0  0  0
 14 16  1  0  0  0  0
 16 17  2  0  0  0  0
 16 20  1  0  0  0  0
 17 18  1  0  0  0  0
 17 49  1  0  0  0  0
 18 19  2  0  0  0  0
 19 20  1  0  0  0  0
 19 50  1  0  0  0  0
 20 51  1  0  0  0  0
 21 22  1  0  0  0  0
 21 32  2  0  0  0  0
 22 23  2  0  0  0  0
 22 52  1  0  0  0  0
 23 24  1  0  0  0  0
 23 53  1  0  0  0  0
 24 25  1  0  0  0  0
 24 31  2  0  0  0  0
 25 26  1  0  0  0  0
 26 27  1  0  0  0  0
 26 30  1  0  0  0  0
 26 54  1  0  0  0  0
 27 28  1  0  0  0  0
 27 55  1  0  0  0  0
 27 56  1  0  0  0  0
 28 29  1  0  0  0  0
 28 57  1  0  0  0  0
 28 58  1  0  0  0  0
 29 30  1  0  0  0  0
 30 59  1  0  0  0  0
 30 60  1  0  0  0  0
 31 32  1  0  0  0  0
 31 61  1  0  0  0  0
 32 62  1  0  0  0  0
 33 34  1  0  0  0  0
 33 38  2  0  0  0  0
 34 35  2  0  0  0  0
 34 63  1  0  0  0  0
 35 36  1  0  0  0  0
 35 64  1  0  0  0  0
 36 37  2  0  0  0  0
 36 65  1  0  0  0  0
 37 38  1  0  0  0  0
 38 66  1  0  0  0  0
 39 67  1  0  0  0  0
M  END
$$$$
