
 OpenBabel07202414183D

 46 49  0  0  0  0  0  0  0  0999 V2000
    1.2148    0.4675   -0.2014 F   0  0  0  0  0  0  0  0  0  0  0  0
    2.5272    0.3011   -0.4164 C   0  0  0  0  0  0  0  0  0  0  0  0
    3.3200    1.3464   -0.8816 C   0  0  0  0  0  0  0  0  0  0  0  0
    2.4901    3.2108   -1.2783 I   0  0  0  0  0  0  0  0  0  0  0  0
    4.6795    1.1342   -1.0952 C   0  0  0  0  0  0  0  0  0  0  0  0
    5.2349   -0.1294   -0.8487 C   0  0  0  0  0  0  0  0  0  0  0  0
    4.4459   -1.1905   -0.3825 C   0  0  0  0  0  0  0  0  0  0  0  0
    5.0146   -2.4689   -0.2129 N   0  0  0  0  0  0  0  0  0  0  0  0
    4.3933   -3.7377   -0.3058 C   0  0  0  0  0  0  0  0  0  0  0  0
    3.3732   -3.9624   -1.2248 C   0  0  0  0  0  0  0  0  0  0  0  0
    2.6909   -5.1862   -1.2392 C   0  0  0  0  0  0  0  0  0  0  0  0
    1.4095   -5.4259   -2.3570 Cl  0  0  0  0  0  0  0  0  0  0  0  0
    3.0248   -6.1846   -0.3281 C   0  0  0  0  0  0  0  0  0  0  0  0
    4.0552   -5.9889    0.6103 C   0  0  0  0  0  0  0  0  0  0  0  0
    4.2764   -7.0579    1.6732 C   0  0  0  0  0  0  0  0  0  0  0  0
    5.7011   -7.3295    2.1459 C   0  0  0  0  0  0  0  0  0  0  0  0
    6.0094   -7.3747    3.3311 O   0  0  0  0  0  0  0  0  0  0  0  0
    6.5483   -7.5852    1.0998 N   0  0  0  0  0  0  0  0  0  0  0  0
    7.9297   -7.8927    1.1773 C   0  0  0  0  0  0  0  0  0  0  0  0
    8.7170   -7.0501    0.3960 C   0  0  0  0  0  0  0  0  0  0  0  0
    9.6434   -7.4748   -0.4793 N   0  0  0  0  0  0  0  0  0  0  0  0
    9.8574   -8.8064   -0.4998 C   0  0  0  0  0  0  0  0  0  0  0  0
    9.3242   -9.7103    0.4207 C   0  0  0  0  0  0  0  0  0  0  0  0
    9.7447  -11.0501    0.4418 C   0  0  0  0  0  0  0  0  0  0  0  0
    9.2689  -11.9249    1.4137 C   0  0  0  0  0  0  0  0  0  0  0  0
    8.3308  -11.4791    2.3403 C   0  0  0  0  0  0  0  0  0  0  0  0
    7.8455  -10.1631    2.2793 C   0  0  0  0  0  0  0  0  0  0  0  0
    8.3440   -9.2426    1.3240 C   0  0  0  0  0  0  0  0  0  0  0  0
    4.7360   -4.7547    0.6070 C   0  0  0  0  0  0  0  0  0  0  0  0
    3.0836   -0.9530   -0.1745 C   0  0  0  0  0  0  0  0  0  0  0  0
    5.3190    1.9344   -1.4586 H   0  0  0  0  0  0  0  0  0  0  0  0
    6.2941   -0.2814   -1.0435 H   0  0  0  0  0  0  0  0  0  0  0  0
    6.0132   -2.4821   -0.0362 H   0  0  0  0  0  0  0  0  0  0  0  0
    3.1005   -3.1946   -1.9444 H   0  0  0  0  0  0  0  0  0  0  0  0
    2.4529   -7.1076   -0.3350 H   0  0  0  0  0  0  0  0  0  0  0  0
    3.9076   -8.0209    1.2870 H   0  0  0  0  0  0  0  0  0  0  0  0
    3.6590   -6.8028    2.5433 H   0  0  0  0  0  0  0  0  0  0  0  0
    6.2826   -7.1487    0.2239 H   0  0  0  0  0  0  0  0  0  0  0  0
    8.5269   -5.9797    0.3838 H   0  0  0  0  0  0  0  0  0  0  0  0
   10.5056   -9.1392   -1.3058 H   0  0  0  0  0  0  0  0  0  0  0  0
   10.4770  -11.4091   -0.2792 H   0  0  0  0  0  0  0  0  0  0  0  0
    9.6464  -12.9435    1.4574 H   0  0  0  0  0  0  0  0  0  0  0  0
    7.9841  -12.1542    3.1198 H   0  0  0  0  0  0  0  0  0  0  0  0
    7.1273   -9.8389    3.0306 H   0  0  0  0  0  0  0  0  0  0  0  0
    5.4967   -4.5553    1.3575 H   0  0  0  0  0  0  0  0  0  0  0  0
    2.4349   -1.7406    0.1915 H   0  0  0  0  0  0  0  0  0  0  0  0
  1  2  1  0  0  0  0
  2  3  2  0  0  0  0
  2 30  1  0  0  0  0
  3  4  1  0  0  0  0
  3  5  1  0  0  0  0
  5  6  2  0  0  0  0
  5 31  1  0  0  0  0
  6  7  1  0  0  0  0
  6 32  1  0  0  0  0
  7  8  1  0  0  0  0
  7 30  2  0  0  0  0
  8  9  1  0  0  0  0
  8 33  1  0  0  0  0
  9 10  2  0  0  0  0
  9 29  1  0  0  0  0
 10 11  1  0  0  0  0
 10 34  1  0  0  0  0
 11 12  1  0  0  0  0
 11 13  2  0  0  0  0
 13 14  1  0  0  0  0
 13 35  1  0  0  0  0
 14 15  1  0  0  0  0
 14 29  2  0  0  0  0
 15 16  1  0  0  0  0
 15 36  1  0  0  0  0
 15 37  1  0  0  0  0
 16 17  2  0  0  0  0
 16 18  1  0  0  0  0
 18 19  1  0  0  0  0
 18 38  1  0  0  0  0
 19 20  2  0  0  0  0
 19 28  1  0  0  0  0
 20 21  1  0  0  0  0
 20 39  1  0  0  0  0
 21 22  2  0  0  0  0
 22 23  1  0  0  0  0
 22 40  1  0  0  0  0
 23 24  2  0  0  0  0
 23 28  1  0  0  0  0
 24 25  1  0  0  0  0
 24 41  1  0  0  0  0
 25 26  2  0  0  0  0
 25 42  1  0  0  0  0
 26 27  1  0  0  0  0
 26 43  1  0  0  0  0
 27 28  2  0  0  0  0
 27 44  1  0  0  0  0
 29 45  1  0  0  0  0
 30 46  1  0  0  0  0
M  END
$$$$
