
 OpenBabel07202414143D

 46 49  0  0  0  0  0  0  0  0999 V2000
    2.0687    1.3794    1.7276 C   0  0  0  0  0  0  0  0  0  0  0  0
    2.3367    0.7022    0.4644 N   0  0  0  0  0  0  0  0  0  0  0  0
    3.1099    1.3408   -0.5114 C   0  0  0  0  0  0  0  0  0  0  0  0
    4.0595    2.3249   -0.2179 C   0  0  0  0  0  0  0  0  0  0  0  0
    4.8154    2.9391   -1.2311 C   0  0  0  0  0  0  0  0  0  0  0  0
    4.6736    2.5476   -2.5622 C   0  0  0  0  0  0  0  0  0  0  0  0
    5.3029    3.3046   -3.5979 N   0  0  0  0  0  0  0  0  0  0  0  0
    6.1548    2.7179   -4.5340 C   0  0  0  0  0  0  0  0  0  0  0  0
    6.1990    3.0609   -5.7339 O   0  0  0  0  0  0  0  0  0  0  0  0
    7.0497    1.5839   -4.0931 C   0  0  0  0  0  0  0  0  0  0  0  0
    8.1280    1.9513   -3.1847 N   0  0  0  0  0  0  0  0  0  0  0  0
    8.9256    2.9915   -3.5233 N   0  0  0  0  0  0  0  0  0  0  0  0
   10.1839    2.5856   -3.3962 N   0  0  0  0  0  0  0  0  0  0  0  0
   10.1721    1.3404   -2.8281 C   0  0  0  0  0  0  0  0  0  0  0  0
   11.2108    0.4315   -2.5757 C   0  0  0  0  0  0  0  0  0  0  0  0
   10.9013   -0.7699   -1.9230 C   0  0  0  0  0  0  0  0  0  0  0  0
    9.5932   -1.0474   -1.5181 C   0  0  0  0  0  0  0  0  0  0  0  0
    8.5350   -0.1829   -1.8231 C   0  0  0  0  0  0  0  0  0  0  0  0
    8.8672    0.9899   -2.5110 C   0  0  0  0  0  0  0  0  0  0  0  0
    4.7876    4.6480   -3.8186 C   0  0  0  0  0  0  0  0  0  0  0  0
    5.5015    5.5631   -4.6163 C   0  0  0  0  0  0  0  0  0  0  0  0
    5.0388    6.8647   -4.8466 C   0  0  0  0  0  0  0  0  0  0  0  0
    3.8458    7.2900   -4.2756 C   0  0  0  0  0  0  0  0  0  0  0  0
    3.1225    6.4059   -3.4821 C   0  0  0  0  0  0  0  0  0  0  0  0
    1.6392    6.9228   -2.7749 Cl  0  0  0  0  0  0  0  0  0  0  0  0
    3.5809    5.1032   -3.2531 C   0  0  0  0  0  0  0  0  0  0  0  0
    3.8106    1.4859   -2.8634 C   0  0  0  0  0  0  0  0  0  0  0  0
    3.0373    0.8999   -1.8435 C   0  0  0  0  0  0  0  0  0  0  0  0
    1.3956    0.7616    2.3303 H   0  0  0  0  0  0  0  0  0  0  0  0
    1.5736    2.3437    1.5637 H   0  0  0  0  0  0  0  0  0  0  0  0
    2.9795    1.5269    2.3119 H   0  0  0  0  0  0  0  0  0  0  0  0
    1.4996    0.2774    0.0739 H   0  0  0  0  0  0  0  0  0  0  0  0
    4.2173    2.6582    0.8008 H   0  0  0  0  0  0  0  0  0  0  0  0
    5.4956    3.7411   -0.9638 H   0  0  0  0  0  0  0  0  0  0  0  0
    7.5741    1.2334   -4.9943 H   0  0  0  0  0  0  0  0  0  0  0  0
    6.4849    0.7439   -3.6931 H   0  0  0  0  0  0  0  0  0  0  0  0
   12.2232    0.6490   -2.8992 H   0  0  0  0  0  0  0  0  0  0  0  0
   11.6928   -1.4899   -1.7253 H   0  0  0  0  0  0  0  0  0  0  0  0
    9.3886   -1.9727   -0.9779 H   0  0  0  0  0  0  0  0  0  0  0  0
    7.5135   -0.4208   -1.5449 H   0  0  0  0  0  0  0  0  0  0  0  0
    6.4518    5.2924   -5.0731 H   0  0  0  0  0  0  0  0  0  0  0  0
    5.6178    7.5404   -5.4725 H   0  0  0  0  0  0  0  0  0  0  0  0
    3.4884    8.2990   -4.4533 H   0  0  0  0  0  0  0  0  0  0  0  0
    2.9590    4.4512   -2.6467 H   0  0  0  0  0  0  0  0  0  0  0  0
    3.6568    1.1596   -3.8884 H   0  0  0  0  0  0  0  0  0  0  0  0
    2.3351    0.1108   -2.1085 H   0  0  0  0  0  0  0  0  0  0  0  0
  1  2  1  0  0  0  0
  1 29  1  0  0  0  0
  1 30  1  0  0  0  0
  1 31  1  0  0  0  0
  2  3  1  0  0  0  0
  2 32  1  0  0  0  0
  3  4  1  0  0  0  0
  3 28  2  0  0  0  0
  4  5  2  0  0  0  0
  4 33  1  0  0  0  0
  5  6  1  0  0  0  0
  5 34  1  0  0  0  0
  6  7  1  0  0  0  0
  6 27  2  0  0  0  0
  7  8  1  0  0  0  0
  7 20  1  0  0  0  0
  8  9  2  0  0  0  0
  8 10  1  0  0  0  0
 10 11  1  0  0  0  0
 10 35  1  0  0  0  0
 10 36  1  0  0  0  0
 11 12  1  0  0  0  0
 11 19  1  0  0  0  0
 12 13  2  0  0  0  0
 13 14  1  0  0  0  0
 14 15  1  0  0  0  0
 14 19  2  0  0  0  0
 15 16  2  0  0  0  0
 15 37  1  0  0  0  0
 16 17  1  0  0  0  0
 16 38  1  0  0  0  0
 17 18  2  0  0  0  0
 17 39  1  0  0  0  0
 18 19  1  0  0  0  0
 18 40  1  0  0  0  0
 20 21  1  0  0  0  0
 20 26  2  0  0  0  0
 21 22  2  0  0  0  0
 21 41  1  0  0  0  0
 22 23  1  0  0  0  0
 22 42  1  0  0  0  0
 23 24  2  0  0  0  0
 23 43  1  0  0  0  0
 24 25  1  0  0  0  0
 24 26  1  0  0  0  0
 26 44  1  0  0  0  0
 27 28  1  0  0  0  0
 27 45  1  0  0  0  0
 28 46  1  0  0  0  0
M  END
$$$$
