
 OpenBabel07202414123D

 48 51  0  0  0  0  0  0  0  0999 V2000
    6.4187    2.0531   -0.8608 C   0  0  0  0  0  0  0  0  0  0  0  0
    6.1888    0.6479   -1.3067 C   0  0  0  0  0  0  0  0  0  0  0  0
    6.4491    0.3096   -2.6150 C   0  0  0  0  0  0  0  0  0  0  0  0
    7.1284    1.5565   -3.8888 Br  0  0  0  0  0  0  0  0  0  0  0  0
    6.2558   -1.0134   -2.9460 C   0  0  0  0  0  0  0  0  0  0  0  0
    6.1914   -1.9726   -1.9195 C   0  0  0  0  0  0  0  0  0  0  0  0
    5.6959   -1.5830   -0.6898 C   0  0  0  0  0  0  0  0  0  0  0  0
    5.2016   -2.5168    0.2279 N   0  0  0  0  0  0  0  0  0  0  0  0
    4.5970   -3.7353   -0.1437 C   0  0  0  0  0  0  0  0  0  0  0  0
    3.8802   -3.9287   -1.3357 C   0  0  0  0  0  0  0  0  0  0  0  0
    3.2402   -5.1092   -1.6358 C   0  0  0  0  0  0  0  0  0  0  0  0
    2.3897   -5.4010   -3.1015 Cl  0  0  0  0  0  0  0  0  0  0  0  0
    3.3061   -6.0866   -0.6961 C   0  0  0  0  0  0  0  0  0  0  0  0
    3.9574   -5.9945    0.5222 C   0  0  0  0  0  0  0  0  0  0  0  0
    3.9856   -7.1285    1.4925 C   0  0  0  0  0  0  0  0  0  0  0  0
    5.1771   -8.0478    1.2735 C   0  0  0  0  0  0  0  0  0  0  0  0
    6.2927   -7.9692    1.7745 O   0  0  0  0  0  0  0  0  0  0  0  0
    5.0339   -9.1141    0.4543 N   0  0  0  0  0  0  0  0  0  0  0  0
    6.2241   -9.8442    0.4090 C   0  0  0  0  0  0  0  0  0  0  0  0
    6.9291   -9.1003   -0.8231 C   0  0  0  0  0  0  0  0  0  0  0  0
    6.7475  -10.2969   -1.0099 N   0  0  0  0  0  0  0  0  0  0  0  0
    6.5723  -11.5626   -1.2529 C   0  0  0  0  0  0  0  0  0  0  0  0
    5.9712  -12.1654   -0.1110 C   0  0  0  0  0  0  0  0  0  0  0  0
    5.8673  -13.5930   -0.2232 C   0  0  0  0  0  0  0  0  0  0  0  0
    5.7254  -14.3951    0.9046 C   0  0  0  0  0  0  0  0  0  0  0  0
    4.9484  -13.8160    1.9279 C   0  0  0  0  0  0  0  0  0  0  0  0
    4.8881  -12.4415    1.9832 C   0  0  0  0  0  0  0  0  0  0  0  0
    5.6635  -11.4135    0.9961 C   0  0  0  0  0  0  0  0  0  0  0  0
    4.5892   -4.7972    0.7801 C   0  0  0  0  0  0  0  0  0  0  0  0
    5.6931   -0.2592   -0.4041 N   0  0  0  0  0  0  0  0  0  0  0  0
    6.8159    2.6791   -1.6660 H   0  0  0  0  0  0  0  0  0  0  0  0
    7.1538    2.0749   -0.0594 H   0  0  0  0  0  0  0  0  0  0  0  0
    5.4891    2.5102   -0.5347 H   0  0  0  0  0  0  0  0  0  0  0  0
    6.1268   -1.2972   -3.9849 H   0  0  0  0  0  0  0  0  0  0  0  0
    6.5549   -2.9790   -2.1025 H   0  0  0  0  0  0  0  0  0  0  0  0
    5.2734   -2.3701    1.2208 H   0  0  0  0  0  0  0  0  0  0  0  0
    3.8438   -3.1490   -2.0605 H   0  0  0  0  0  0  0  0  0  0  0  0
    2.7986   -6.9625   -0.9813 H   0  0  0  0  0  0  0  0  0  0  0  0
    3.0384   -7.6743    1.4036 H   0  0  0  0  0  0  0  0  0  0  0  0
    4.0498   -6.7214    2.5050 H   0  0  0  0  0  0  0  0  0  0  0  0
    5.0707   -8.9959   -0.5550 H   0  0  0  0  0  0  0  0  0  0  0  0
    7.4411   -8.8889   -2.0121 H   0  0  0  0  0  0  0  0  0  0  0  0
    7.0589  -11.8546   -2.1781 H   0  0  0  0  0  0  0  0  0  0  0  0
    5.9405  -14.0067   -1.2054 H   0  0  0  0  0  0  0  0  0  0  0  0
    6.1468  -15.3525    0.9360 H   0  0  0  0  0  0  0  0  0  0  0  0
    4.5773  -14.5020    2.6974 H   0  0  0  0  0  0  0  0  0  0  0  0
    4.3131  -12.0872    2.8626 H   0  0  0  0  0  0  0  0  0  0  0  0
    5.0767   -4.7005    1.7256 H   0  0  0  0  0  0  0  0  0  0  0  0
  1  2  1  0  0  0  0
  1 31  1  0  0  0  0
  1 32  1  0  0  0  0
  1 33  1  0  0  0  0
  2  3  2  0  0  0  0
  2 30  1  0  0  0  0
  3  4  1  0  0  0  0
  3  5  1  0  0  0  0
  5  6  2  0  0  0  0
  5 34  1  0  0  0  0
  6  7  1  0  0  0  0
  6 35  1  0  0  0  0
  7  8  1  0  0  0  0
  7 30  2  0  0  0  0
  8  9  1  0  0  0  0
  8 36  1  0  0  0  0
  9 10  2  0  0  0  0
  9 29  1  0  0  0  0
 10 11  1  0  0  0  0
 10 37  1  0  0  0  0
 11 12  1  0  0  0  0
 11 13  2  0  0  0  0
 13 14  1  0  0  0  0
 13 38  1  0  0  0  0
 14 15  1  0  0  0  0
 14 29  2  0  0  0  0
 15 16  1  0  0  0  0
 15 39  1  0  0  0  0
 15 40  1  0  0  0  0
 16 17  2  0  0  0  0
 16 18  1  0  0  0  0
 18 19  1  0  0  0  0
 18 41  1  0  0  0  0
 19 20  2  0  0  0  0
 19 28  1  0  0  0  0
 20 21  1  0  0  0  0
 20 42  1  0  0  0  0
 21 22  2  0  0  0  0
 22 23  1  0  0  0  0
 22 43  1  0  0  0  0
 23 24  2  0  0  0  0
 23 28  1  0  0  0  0
 24 25  1  0  0  0  0
 24 44  1  0  0  0  0
 25 26  2  0  0  0  0
 25 45  1  0  0  0  0
 26 27  1  0  0  0  0
 26 46  1  0  0  0  0
 27 28  2  0  0  0  0
 27 47  1  0  0  0  0
 29 48  1  0  0  0  0
M  END
$$$$
