
 OpenBabel07202414193D

 69 74  0  0  1  0  0  0  0  0999 V2000
    3.2617   -1.2661    0.1990 O   0  0  0  0  0  0  0  0  0  0  0  0
    2.4734   -0.4196    0.6171 C   0  0  0  0  0  0  0  0  0  0  0  0
    3.0198    0.8280    1.3170 C   0  0  0  0  0  0  0  0  0  0  0  0
    2.1203    1.3539    2.3759 N   0  0  0  0  0  0  0  0  0  0  0  0
    1.9147    0.3315    3.4239 C   0  0  0  0  0  0  0  0  0  0  0  0
    1.1840    0.8590    4.6389 C   0  0  0  0  0  0  0  0  0  0  0  0
    0.5302   -0.0631    5.4721 C   0  0  0  0  0  0  0  0  0  0  0  0
   -0.1804    0.3727    6.5851 C   0  0  0  0  0  0  0  0  0  0  0  0
   -0.2294    1.7298    6.8742 C   0  0  0  0  0  0  0  0  0  0  0  0
   -1.1464    2.2710    8.2298 Cl  0  0  0  0  0  0  0  0  0  0  0  0
    0.4310    2.6618    6.0712 C   0  0  0  0  0  0  0  0  0  0  0  0
    1.1656    2.2330    4.9542 C   0  0  0  0  0  0  0  0  0  0  0  0
    1.8016    3.2342    3.9979 C   0  0  1  0  0  0  0  0  0  0  0  0
    2.5219    4.4098    4.6616 C   0  0  0  0  0  0  0  0  0  0  0  0
    2.1560    5.5644    4.4481 O   0  0  0  0  0  0  0  0  0  0  0  0
    3.6019    4.0484    5.4536 N   0  0  0  0  0  0  0  0  0  0  0  0
    4.4551    4.8970    6.2125 C   0  0  0  0  0  0  0  0  0  0  0  0
    4.2546    6.2749    6.3301 C   0  0  0  0  0  0  0  0  0  0  0  0
    4.9329    7.0783    7.1851 N   0  0  0  0  0  0  0  0  0  0  0  0
    5.9079    6.4997    7.9143 C   0  0  0  0  0  0  0  0  0  0  0  0
    6.3082    5.1728    7.7773 C   0  0  0  0  0  0  0  0  0  0  0  0
    7.4447    4.6866    8.4524 C   0  0  0  0  0  0  0  0  0  0  0  0
    7.8751    3.3772    8.2604 C   0  0  0  0  0  0  0  0  0  0  0  0
    7.1511    2.5281    7.4337 C   0  0  0  0  0  0  0  0  0  0  0  0
    6.0038    2.9943    6.7831 C   0  0  0  0  0  0  0  0  0  0  0  0
    5.5604    4.3368    6.9125 C   0  0  0  0  0  0  0  0  0  0  0  0
    2.7535    2.5427    2.9938 C   0  0  0  0  0  0  0  0  0  0  0  0
    1.0924   -0.4420    0.4690 N   0  0  0  0  0  0  0  0  0  0  0  0
    0.3426   -1.4927   -0.0919 C   0  0  0  0  0  0  0  0  0  0  0  0
    0.8687   -2.7614   -0.3107 C   0  0  0  0  0  0  0  0  0  0  0  0
    0.1391   -3.7378   -0.9991 C   0  0  0  0  0  0  0  0  0  0  0  0
   -1.1421   -3.4806   -1.4940 C   0  0  0  0  0  0  0  0  0  0  0  0
   -1.8190   -4.4180   -2.3630 N   0  0  0  0  0  0  0  0  0  0  0  0
   -2.7095   -3.8501   -3.3909 C   0  0  0  0  0  0  0  0  0  0  0  0
   -3.4644   -4.8843   -4.2177 C   0  0  0  0  0  0  0  0  0  0  0  0
   -2.5463   -5.8359   -4.7363 O   0  0  0  0  0  0  0  0  0  0  0  0
   -1.9689   -6.5548   -3.6617 C   0  0  0  0  0  0  0  0  0  0  0  0
   -1.4092   -5.7610   -2.4671 C   0  0  0  0  0  0  0  0  0  0  0  0
   -0.7081   -6.3575   -1.6469 O   0  0  0  0  0  0  0  0  0  0  0  0
   -1.7041   -2.2322   -1.1724 C   0  0  0  0  0  0  0  0  0  0  0  0
   -0.9788   -1.2556   -0.4639 C   0  0  0  0  0  0  0  0  0  0  0  0
    3.1729    1.5861    0.5395 H   0  0  0  0  0  0  0  0  0  0  0  0
    3.9985    0.5660    1.7402 H   0  0  0  0  0  0  0  0  0  0  0  0
    2.8689   -0.0967    3.7568 H   0  0  0  0  0  0  0  0  0  0  0  0
    1.3061   -0.4821    3.0147 H   0  0  0  0  0  0  0  0  0  0  0  0
    0.5468   -1.1255    5.2337 H   0  0  0  0  0  0  0  0  0  0  0  0
   -0.7081   -0.3467    7.2057 H   0  0  0  0  0  0  0  0  0  0  0  0
    0.3566    3.7221    6.3104 H   0  0  0  0  0  0  0  0  0  0  0  0
    0.9733    3.6597    3.4169 H   0  0  0  0  0  0  0  0  0  0  0  0
    3.7296    3.0575    5.6012 H   0  0  0  0  0  0  0  0  0  0  0  0
    3.5172    6.8129    5.7436 H   0  0  0  0  0  0  0  0  0  0  0  0
    6.3915    7.1663    8.6252 H   0  0  0  0  0  0  0  0  0  0  0  0
    8.0200    5.3412    9.1045 H   0  0  0  0  0  0  0  0  0  0  0  0
    8.7840    3.0259    8.7420 H   0  0  0  0  0  0  0  0  0  0  0  0
    7.4859    1.5063    7.2776 H   0  0  0  0  0  0  0  0  0  0  0  0
    5.4968    2.2921    6.1313 H   0  0  0  0  0  0  0  0  0  0  0  0
    3.6943    2.2483    3.4813 H   0  0  0  0  0  0  0  0  0  0  0  0
    3.0263    3.2712    2.2178 H   0  0  0  0  0  0  0  0  0  0  0  0
    0.6107    0.4105    0.7372 H   0  0  0  0  0  0  0  0  0  0  0  0
    1.8643   -3.0331    0.0262 H   0  0  0  0  0  0  0  0  0  0  0  0
    0.6562   -4.6736   -1.1854 H   0  0  0  0  0  0  0  0  0  0  0  0
   -2.0748   -3.2541   -4.0592 H   0  0  0  0  0  0  0  0  0  0  0  0
   -3.4552   -3.1986   -2.9290 H   0  0  0  0  0  0  0  0  0  0  0  0
   -3.9620   -4.3965   -5.0618 H   0  0  0  0  0  0  0  0  0  0  0  0
   -4.2327   -5.3942   -3.6242 H   0  0  0  0  0  0  0  0  0  0  0  0
   -1.1474   -7.1489   -4.0766 H   0  0  0  0  0  0  0  0  0  0  0  0
   -2.7162   -7.2530   -3.2663 H   0  0  0  0  0  0  0  0  0  0  0  0
   -2.7198   -1.9767   -1.4563 H   0  0  0  0  0  0  0  0  0  0  0  0
   -1.4539   -0.2996   -0.2586 H   0  0  0  0  0  0  0  0  0  0  0  0
  1  2  2  0  0  0  0
  2  3  1  0  0  0  0
  2 28  1  0  0  0  0
  3  4  1  0  0  0  0
  3 42  1  0  0  0  0
  3 43  1  0  0  0  0
  4  5  1  0  0  0  0
  4 27  1  0  0  0  0
  5  6  1  0  0  0  0
  5 44  1  0  0  0  0
  5 45  1  0  0  0  0
  6  7  1  0  0  0  0
  6 12  2  0  0  0  0
  7  8  2  0  0  0  0
  7 46  1  0  0  0  0
  8  9  1  0  0  0  0
  8 47  1  0  0  0  0
  9 10  1  0  0  0  0
  9 11  2  0  0  0  0
 11 12  1  0  0  0  0
 11 48  1  0  0  0  0
 12 13  1  0  0  0  0
 13 27  1  0  0  0  0
 13 14  1  0  0  0  0
 13 49  1  6  0  0  0
 14 15  2  0  0  0  0
 14 16  1  0  0  0  0
 16 17  1  0  0  0  0
 16 50  1  0  0  0  0
 17 18  1  0  0  0  0
 17 26  2  0  0  0  0
 18 19  2  0  0  0  0
 18 51  1  0  0  0  0
 19 20  1  0  0  0  0
 20 21  2  0  0  0  0
 20 52  1  0  0  0  0
 21 22  1  0  0  0  0
 21 26  1  0  0  0  0
 22 23  2  0  0  0  0
 22 53  1  0  0  0  0
 23 24  1  0  0  0  0
 23 54  1  0  0  0  0
 24 25  2  0  0  0  0
 24 55  1  0  0  0  0
 25 26  1  0  0  0  0
 25 56  1  0  0  0  0
 27 57  1  0  0  0  0
 27 58  1  0  0  0  0
 28 29  1  0  0  0  0
 28 59  1  0  0  0  0
 29 30  1  0  0  0  0
 29 41  2  0  0  0  0
 30 31  2  0  0  0  0
 30 60  1  0  0  0  0
 31 32  1  0  0  0  0
 31 61  1  0  0  0  0
 32 33  1  0  0  0  0
 32 40  2  0  0  0  0
 33 34  1  0  0  0  0
 33 38  1  0  0  0  0
 34 35  1  0  0  0  0
 34 62  1  0  0  0  0
 34 63  1  0  0  0  0
 35 36  1  0  0  0  0
 35 64  1  0  0  0  0
 35 65  1  0  0  0  0
 36 37  1  0  0  0  0
 37 38  1  0  0  0  0
 37 66  1  0  0  0  0
 37 67  1  0  0  0  0
 38 39  2  0  0  0  0
 40 41  1  0  0  0  0
 40 68  1  0  0  0  0
 41 69  1  0  0  0  0
M  END
$$$$
