
 OpenBabel07202414173D

 54 56  0  0  1  0  0  0  0  0999 V2000
    0.8920    0.4343   -0.1021 Cl  0  0  0  0  0  0  0  0  0  0  0  0
    2.6309    0.7855   -0.1182 C   0  0  0  0  0  0  0  0  0  0  0  0
    3.2133    0.8459    1.2840 C   0  0  0  0  0  0  0  0  0  0  0  0
    2.5283    0.7007    2.2990 O   0  0  0  0  0  0  0  0  0  0  0  0
    4.5847    1.0610    1.3807 N   0  0  0  0  0  0  0  0  0  0  0  0
    5.4952    1.2870    0.2491 C   0  0  0  0  0  0  0  0  0  0  0  0
    6.6970    0.3263    0.2556 C   0  0  0  0  0  0  0  0  0  0  0  0
    7.3595    0.2209    1.6021 N   0  0  0  0  0  0  0  0  0  0  0  0
    8.3827    1.5289    2.0053 S   0  0  0  0  0  0  0  0  0  0  0  0
    7.7001    2.7682    1.6935 O   0  0  0  0  0  0  0  0  0  0  0  0
    8.9118    1.2835    3.3279 O   0  0  0  0  0  0  0  0  0  0  0  0
    9.7992    1.6002    1.0166 C   0  0  0  0  0  0  0  0  0  0  0  0
   10.7246    2.6914    1.0843 C   0  0  0  0  0  0  0  0  0  0  0  0
   11.7682    2.5418    0.1981 C   0  0  0  0  0  0  0  0  0  0  0  0
   11.6368    1.0917   -0.7024 S   0  0  0  0  0  0  0  0  0  0  0  0
   10.1908    0.6464    0.1051 C   0  0  0  0  0  0  0  0  0  0  0  0
    6.3371   -0.0892    2.7064 C   0  0  2  0  0  0  0  0  0  0  0  0
    5.6904   -1.4905    2.5898 C   0  0  0  0  0  0  0  0  0  0  0  0
    5.5029   -2.0481    1.5072 O   0  0  0  0  0  0  0  0  0  0  0  0
    5.2867   -2.0970    3.7773 N   0  0  0  0  0  0  0  0  0  0  0  0
    4.5864   -3.3736    3.7002 C   0  0  0  0  0  0  0  0  0  0  0  0
    4.3048   -4.0974    5.0294 C   0  0  0  0  0  0  0  0  0  0  0  0
    3.2867   -3.3628    5.9142 C   0  0  0  0  0  0  0  0  0  0  0  0
    3.0126   -4.1262    7.2127 C   0  0  0  0  0  0  0  0  0  0  0  0
    4.3000   -4.4270    7.9737 C   0  0  0  0  0  0  0  0  0  0  0  0
    5.3029   -5.1728    7.0999 C   0  0  0  0  0  0  0  0  0  0  0  0
    5.5912   -4.4181    5.8022 C   0  0  0  0  0  0  0  0  0  0  0  0
    5.2245    0.9761    2.7034 C   0  0  0  0  0  0  0  0  0  0  0  0
    2.7725    1.7451   -0.6215 H   0  0  0  0  0  0  0  0  0  0  0  0
    3.1178   -0.0183   -0.6765 H   0  0  0  0  0  0  0  0  0  0  0  0
    5.8228    2.3284    0.3065 H   0  0  0  0  0  0  0  0  0  0  0  0
    4.9808    1.1908   -0.7087 H   0  0  0  0  0  0  0  0  0  0  0  0
    7.4223    0.6320   -0.5039 H   0  0  0  0  0  0  0  0  0  0  0  0
    6.3756   -0.6697   -0.0610 H   0  0  0  0  0  0  0  0  0  0  0  0
   10.6248    3.5412    1.7511 H   0  0  0  0  0  0  0  0  0  0  0  0
   12.6026    3.2126    0.0364 H   0  0  0  0  0  0  0  0  0  0  0  0
    9.7048   -0.2877   -0.1401 H   0  0  0  0  0  0  0  0  0  0  0  0
    6.8579   -0.0795    3.6717 H   0  0  0  0  0  0  0  0  0  0  0  0
    5.1826   -1.5351    4.6130 H   0  0  0  0  0  0  0  0  0  0  0  0
    5.1934   -4.0341    3.0679 H   0  0  0  0  0  0  0  0  0  0  0  0
    3.6454   -3.2007    3.1640 H   0  0  0  0  0  0  0  0  0  0  0  0
    3.8449   -5.0596    4.7569 H   0  0  0  0  0  0  0  0  0  0  0  0
    2.3422   -3.2386    5.3706 H   0  0  0  0  0  0  0  0  0  0  0  0
    3.6507   -2.3586    6.1594 H   0  0  0  0  0  0  0  0  0  0  0  0
    2.4975   -5.0682    6.9844 H   0  0  0  0  0  0  0  0  0  0  0  0
    2.3372   -3.5432    7.8491 H   0  0  0  0  0  0  0  0  0  0  0  0
    4.0732   -5.0223    8.8656 H   0  0  0  0  0  0  0  0  0  0  0  0
    4.7463   -3.4875    8.3215 H   0  0  0  0  0  0  0  0  0  0  0  0
    4.9119   -6.1712    6.8664 H   0  0  0  0  0  0  0  0  0  0  0  0
    6.2368   -5.3195    7.6543 H   0  0  0  0  0  0  0  0  0  0  0  0
    6.2572   -5.0254    5.1776 H   0  0  0  0  0  0  0  0  0  0  0  0
    6.1278   -3.4924    6.0400 H   0  0  0  0  0  0  0  0  0  0  0  0
    5.6283    1.9688    2.9309 H   0  0  0  0  0  0  0  0  0  0  0  0
    4.4926    0.7542    3.4863 H   0  0  0  0  0  0  0  0  0  0  0  0
  1  2  1  0  0  0  0
  2  3  1  0  0  0  0
  2 29  1  0  0  0  0
  2 30  1  0  0  0  0
  3  4  2  0  0  0  0
  3  5  1  0  0  0  0
  5  6  1  0  0  0  0
  5 28  1  0  0  0  0
  6  7  1  0  0  0  0
  6 31  1  0  0  0  0
  6 32  1  0  0  0  0
  7  8  1  0  0  0  0
  7 33  1  0  0  0  0
  7 34  1  0  0  0  0
  8  9  1  0  0  0  0
  8 17  1  0  0  0  0
  9 10  2  0  0  0  0
  9 11  2  0  0  0  0
  9 12  1  0  0  0  0
 12 13  1  0  0  0  0
 12 16  2  0  0  0  0
 13 14  2  0  0  0  0
 13 35  1  0  0  0  0
 14 15  1  0  0  0  0
 14 36  1  0  0  0  0
 15 16  1  0  0  0  0
 16 37  1  0  0  0  0
 17 28  1  0  0  0  0
 17 18  1  0  0  0  0
 17 38  1  1  0  0  0
 18 19  2  0  0  0  0
 18 20  1  0  0  0  0
 20 21  1  0  0  0  0
 20 39  1  0  0  0  0
 21 22  1  0  0  0  0
 21 40  1  0  0  0  0
 21 41  1  0  0  0  0
 22 23  1  0  0  0  0
 22 27  1  0  0  0  0
 22 42  1  0  0  0  0
 23 24  1  0  0  0  0
 23 43  1  0  0  0  0
 23 44  1  0  0  0  0
 24 25  1  0  0  0  0
 24 45  1  0  0  0  0
 24 46  1  0  0  0  0
 25 26  1  0  0  0  0
 25 47  1  0  0  0  0
 25 48  1  0  0  0  0
 26 27  1  0  0  0  0
 26 49  1  0  0  0  0
 26 50  1  0  0  0  0
 27 51  1  0  0  0  0
 27 52  1  0  0  0  0
 28 53  1  0  0  0  0
 28 54  1  0  0  0  0
M  END
$$$$
