
 OpenBabel07202414163D

 43 45  0  0  1  0  0  0  0  0999 V2000
   -1.8905   -0.4005    2.6791 C   0  0  0  0  0  0  0  0  0  0  0  0
   -1.3700   -0.5830    1.2822 C   0  0  0  0  0  0  0  0  0  0  0  0
   -0.6127   -1.7374    1.0146 C   0  0  0  0  0  0  0  0  0  0  0  0
   -0.1328   -1.9670   -0.2643 C   0  0  0  0  0  0  0  0  0  0  0  0
   -0.3773   -1.1504   -1.2975 N   0  0  0  0  0  0  0  0  0  0  0  0
   -1.1089   -0.0394   -1.0273 C   0  0  0  0  0  0  0  0  0  0  0  0
   -1.6097    0.3222    0.2305 C   0  0  0  0  0  0  0  0  0  0  0  0
   -2.3305    1.5363    0.4456 N   0  0  0  0  0  0  0  0  0  0  0  0
   -2.3313    2.6051   -0.4409 C   0  0  0  0  0  0  0  0  0  0  0  0
   -1.6586    2.6385   -1.4761 O   0  0  0  0  0  0  0  0  0  0  0  0
   -3.1725    3.8223   -0.0394 C   0  0  3  0  0  0  0  0  0  0  0  0
   -2.9757    4.9303   -1.0907 C   0  0  0  0  0  0  0  0  0  0  0  0
   -4.6547    3.5401    0.1445 C   0  0  0  0  0  0  0  0  0  0  0  0
   -5.3431    2.6209   -0.6603 C   0  0  0  0  0  0  0  0  0  0  0  0
   -6.7108    2.3793   -0.4779 C   0  0  0  0  0  0  0  0  0  0  0  0
   -7.4094    3.0443    0.5244 C   0  0  0  0  0  0  0  0  0  0  0  0
   -6.7454    3.9970    1.2964 C   0  0  0  0  0  0  0  0  0  0  0  0
   -5.3861    4.2566    1.1042 C   0  0  0  0  0  0  0  0  0  0  0  0
   -7.6113    4.8696    2.5022 Cl  0  0  0  0  0  0  0  0  0  0  0  0
   -7.2499    1.4679   -1.3496 O   0  0  0  0  0  0  0  0  0  0  0  0
   -8.6780    1.3646   -1.4938 C   0  0  3  0  0  0  0  0  0  0  0  0
   -9.1392    0.6706   -2.7962 C   0  0  0  0  0  0  0  0  0  0  0  0
   -9.5971    2.0706   -3.2089 C   0  0  0  0  0  0  0  0  0  0  0  0
   -9.9207    2.6393   -4.2214 O   0  0  0  0  0  0  0  0  0  0  0  0
   -9.4045    2.5564   -1.9566 N   0  0  0  0  0  0  0  0  0  0  0  0
   -1.3529   -1.0442    3.3856 H   0  0  0  0  0  0  0  0  0  0  0  0
   -2.9505   -0.6680    2.7222 H   0  0  0  0  0  0  0  0  0  0  0  0
   -1.7531    0.6276    3.0273 H   0  0  0  0  0  0  0  0  0  0  0  0
   -0.3852   -2.4594    1.7950 H   0  0  0  0  0  0  0  0  0  0  0  0
    0.4732   -2.8364   -0.4964 H   0  0  0  0  0  0  0  0  0  0  0  0
   -1.2923    0.5506   -1.9180 H   0  0  0  0  0  0  0  0  0  0  0  0
   -2.7740    1.6670    1.3432 H   0  0  0  0  0  0  0  0  0  0  0  0
   -2.7574    4.1802    0.9136 H   0  0  0  0  0  0  0  0  0  0  0  0
   -3.2965    4.5961   -2.0846 H   0  0  0  0  0  0  0  0  0  0  0  0
   -1.9160    5.2013   -1.1680 H   0  0  0  0  0  0  0  0  0  0  0  0
   -3.5356    5.8369   -0.8451 H   0  0  0  0  0  0  0  0  0  0  0  0
   -4.8246    2.0848   -1.4551 H   0  0  0  0  0  0  0  0  0  0  0  0
   -8.4596    2.8482    0.7140 H   0  0  0  0  0  0  0  0  0  0  0  0
   -4.8995    5.0253    1.7021 H   0  0  0  0  0  0  0  0  0  0  0  0
   -9.1423    0.9249   -0.6022 H   0  0  0  0  0  0  0  0  0  0  0  0
   -9.9475   -0.0562   -2.6951 H   0  0  0  0  0  0  0  0  0  0  0  0
   -8.3399    0.2708   -3.4259 H   0  0  0  0  0  0  0  0  0  0  0  0
   -9.1102    3.5196   -1.8916 H   0  0  0  0  0  0  0  0  0  0  0  0
  1  2  1  0  0  0  0
  1 26  1  0  0  0  0
  1 27  1  0  0  0  0
  1 28  1  0  0  0  0
  2  3  1  0  0  0  0
  2  7  2  0  0  0  0
  3  4  2  0  0  0  0
  3 29  1  0  0  0  0
  4  5  1  0  0  0  0
  4 30  1  0  0  0  0
  5  6  2  0  0  0  0
  6  7  1  0  0  0  0
  6 31  1  0  0  0  0
  7  8  1  0  0  0  0
  8  9  1  0  0  0  0
  8 32  1  0  0  0  0
  9 10  2  0  0  0  0
  9 11  1  0  0  0  0
 11 12  1  0  0  0  0
 11 13  1  0  0  0  0
 11 33  1  0  0  0  0
 12 34  1  0  0  0  0
 12 35  1  0  0  0  0
 12 36  1  0  0  0  0
 13 14  1  0  0  0  0
 13 18  2  0  0  0  0
 14 15  2  0  0  0  0
 14 37  1  0  0  0  0
 15 16  1  0  0  0  0
 15 20  1  0  0  0  0
 16 17  2  0  0  0  0
 16 38  1  0  0  0  0
 17 18  1  0  0  0  0
 17 19  1  0  0  0  0
 18 39  1  0  0  0  0
 20 21  1  0  0  0  0
 21 22  1  0  0  0  0
 21 25  1  0  0  0  0
 21 40  1  0  0  0  0
 22 23  1  0  0  0  0
 22 41  1  0  0  0  0
 22 42  1  0  0  0  0
 23 24  2  0  0  0  0
 23 25  1  0  0  0  0
 25 43  1  0  0  0  0
M  END
$$$$
