
 OpenBabel07202414123D

 46 48  0  0  1  0  0  0  0  0999 V2000
    1.2658    0.6030    0.3865 C   0  0  0  0  0  0  0  0  0  0  0  0
    2.6636    0.1487   -0.0339 C   0  0  3  0  0  0  0  0  0  0  0  0
    2.5989   -1.2544   -0.6732 C   0  0  0  0  0  0  0  0  0  0  0  0
    3.9512   -1.8327   -1.1039 C   0  0  0  0  0  0  0  0  0  0  0  0
    3.7986   -3.1874   -1.6953 C   0  0  0  0  0  0  0  0  0  0  0  0
    3.8332   -4.4604   -1.1693 C   0  0  0  0  0  0  0  0  0  0  0  0
    3.6518   -5.3462   -2.2599 C   0  0  0  0  0  0  0  0  0  0  0  0
    3.5064   -4.5564   -3.3742 C   0  0  0  0  0  0  0  0  0  0  0  0
    3.5888   -3.2428   -3.0420 O   0  0  0  0  0  0  0  0  0  0  0  0
    3.2705    1.1519   -0.9104 N   0  0  0  0  0  0  0  0  0  0  0  0
    4.6382    1.2911   -0.9263 C   0  0  0  0  0  0  0  0  0  0  0  0
    5.3541    0.6325   -0.1742 O   0  0  0  0  0  0  0  0  0  0  0  0
    5.0952    2.2397   -1.8112 N   0  0  0  0  0  0  0  0  0  0  0  0
    6.4401    2.5309   -2.0121 C   0  0  0  0  0  0  0  0  0  0  0  0
    7.4072    1.6111   -1.8263 C   0  0  0  0  0  0  0  0  0  0  0  0
    8.7563    1.8622   -1.9684 N   0  0  0  0  0  0  0  0  0  0  0  0
    9.7182    0.8342   -1.6097 C   0  0  0  0  0  0  0  0  0  0  0  0
    9.2476    3.1036   -2.3548 C   0  0  0  0  0  0  0  0  0  0  0  0
   10.4460    3.3505   -2.4845 O   0  0  0  0  0  0  0  0  0  0  0  0
    8.2366    4.1682   -2.5864 C   0  0  0  0  0  0  0  0  0  0  0  0
    8.6920    5.4525   -2.9205 C   0  0  0  0  0  0  0  0  0  0  0  0
    7.7860    6.4988   -3.0546 C   0  0  0  0  0  0  0  0  0  0  0  0
    6.4302    6.2631   -2.8511 C   0  0  0  0  0  0  0  0  0  0  0  0
    5.9728    4.9775   -2.5338 C   0  0  0  0  0  0  0  0  0  0  0  0
    6.8665    3.8990   -2.4049 C   0  0  0  0  0  0  0  0  0  0  0  0
    0.8563   -0.0595    1.1573 H   0  0  0  0  0  0  0  0  0  0  0  0
    0.5745    0.6037   -0.4631 H   0  0  0  0  0  0  0  0  0  0  0  0
    1.2896    1.6187    0.7961 H   0  0  0  0  0  0  0  0  0  0  0  0
    3.2743    0.0886    0.8770 H   0  0  0  0  0  0  0  0  0  0  0  0
    1.9327   -1.2260   -1.5449 H   0  0  0  0  0  0  0  0  0  0  0  0
    2.1360   -1.9451    0.0468 H   0  0  0  0  0  0  0  0  0  0  0  0
    4.6341   -1.8909   -0.2483 H   0  0  0  0  0  0  0  0  0  0  0  0
    4.4193   -1.1884   -1.8558 H   0  0  0  0  0  0  0  0  0  0  0  0
    3.9814   -4.7142   -0.1291 H   0  0  0  0  0  0  0  0  0  0  0  0
    3.6327   -6.4255   -2.2338 H   0  0  0  0  0  0  0  0  0  0  0  0
    3.3473   -4.7603   -4.4258 H   0  0  0  0  0  0  0  0  0  0  0  0
    2.7319    1.5073   -1.6876 H   0  0  0  0  0  0  0  0  0  0  0  0
    4.4117    2.9222   -2.0932 H   0  0  0  0  0  0  0  0  0  0  0  0
    7.1670    0.5907   -1.5444 H   0  0  0  0  0  0  0  0  0  0  0  0
    9.2350   -0.1266   -1.4068 H   0  0  0  0  0  0  0  0  0  0  0  0
   10.2586    1.1604   -0.7140 H   0  0  0  0  0  0  0  0  0  0  0  0
   10.4381    0.7102   -2.4243 H   0  0  0  0  0  0  0  0  0  0  0  0
    9.7558    5.6393   -3.0526 H   0  0  0  0  0  0  0  0  0  0  0  0
    8.1419    7.4975   -3.2940 H   0  0  0  0  0  0  0  0  0  0  0  0
    5.7249    7.0871   -2.9207 H   0  0  0  0  0  0  0  0  0  0  0  0
    4.9087    4.8622   -2.3573 H   0  0  0  0  0  0  0  0  0  0  0  0
  1  2  1  0  0  0  0
  1 26  1  0  0  0  0
  1 27  1  0  0  0  0
  1 28  1  0  0  0  0
  2  3  1  0  0  0  0
  2 10  1  0  0  0  0
  2 29  1  0  0  0  0
  3  4  1  0  0  0  0
  3 30  1  0  0  0  0
  3 31  1  0  0  0  0
  4  5  1  0  0  0  0
  4 32  1  0  0  0  0
  4 33  1  0  0  0  0
  5  6  2  0  0  0  0
  5  9  1  0  0  0  0
  6  7  1  0  0  0  0
  6 34  1  0  0  0  0
  7  8  2  0  0  0  0
  7 35  1  0  0  0  0
  8  9  1  0  0  0  0
  8 36  1  0  0  0  0
 10 11  1  0  0  0  0
 10 37  1  0  0  0  0
 11 12  2  0  0  0  0
 11 13  1  0  0  0  0
 13 14  1  0  0  0  0
 13 38  1  0  0  0  0
 14 15  2  0  0  0  0
 14 25  1  0  0  0  0
 15 16  1  0  0  0  0
 15 39  1  0  0  0  0
 16 17  1  0  0  0  0
 16 18  1  0  0  0  0
 17 40  1  0  0  0  0
 17 41  1  0  0  0  0
 17 42  1  0  0  0  0
 18 19  2  0  0  0  0
 18 20  1  0  0  0  0
 20 21  1  0  0  0  0
 20 25  2  0  0  0  0
 21 22  2  0  0  0  0
 21 43  1  0  0  0  0
 22 23  1  0  0  0  0
 22 44  1  0  0  0  0
 23 24  2  0  0  0  0
 23 45  1  0  0  0  0
 24 25  1  0  0  0  0
 24 46  1  0  0  0  0
M  END
$$$$
