
 OpenBabel07202414193D

 37 39  0  0  0  0  0  0  0  0999 V2000
    1.0717    0.0995   -0.0162 O   0  0  0  0  0  0  0  0  0  0  0  0
    2.2943    0.0814   -0.0807 C   0  0  0  0  0  0  0  0  0  0  0  0
    2.9848   -0.5657   -1.0925 N   0  0  0  0  0  0  0  0  0  0  0  0
    2.3165   -1.3637   -2.1269 C   0  0  0  0  0  0  0  0  0  0  0  0
    0.9363   -0.8602   -2.5623 C   0  0  0  0  0  0  0  0  0  0  0  0
    0.4348   -1.5871   -3.6923 O   0  0  0  0  0  0  0  0  0  0  0  0
   -0.8755   -1.2132   -3.9616 C   0  0  0  0  0  0  0  0  0  0  0  0
   -1.5488   -1.9221   -4.9332 C   0  0  0  0  0  0  0  0  0  0  0  0
   -2.8590   -1.5450   -5.2023 C   0  0  0  0  0  0  0  0  0  0  0  0
   -3.7561   -2.3784   -6.4122 Cl  0  0  0  0  0  0  0  0  0  0  0  0
   -3.4590   -0.5011   -4.5072 C   0  0  0  0  0  0  0  0  0  0  0  0
   -2.7043    0.1430   -3.5525 C   0  0  0  0  0  0  0  0  0  0  0  0
   -1.4281   -0.1861   -3.2771 N   0  0  0  0  0  0  0  0  0  0  0  0
    3.0697    0.8137    0.9499 C   0  0  0  0  0  0  0  0  0  0  0  0
    4.2747    1.4105    0.5917 C   0  0  0  0  0  0  0  0  0  0  0  0
    5.0202    2.1792    1.4155 N   0  0  0  0  0  0  0  0  0  0  0  0
    4.5116    2.3986    2.6487 C   0  0  0  0  0  0  0  0  0  0  0  0
    3.3039    1.8752    3.1206 C   0  0  0  0  0  0  0  0  0  0  0  0
    2.8353    2.1805    4.4142 C   0  0  0  0  0  0  0  0  0  0  0  0
    1.6289    1.6607    4.8787 C   0  0  0  0  0  0  0  0  0  0  0  0
    0.8855    0.8206    4.0651 C   0  0  0  0  0  0  0  0  0  0  0  0
    1.3460    0.5097    2.7832 C   0  0  0  0  0  0  0  0  0  0  0  0
    2.5576    1.0391    2.2616 C   0  0  0  0  0  0  0  0  0  0  0  0
    3.9798   -0.7129   -0.9890 H   0  0  0  0  0  0  0  0  0  0  0  0
    2.2461   -2.3927   -1.7578 H   0  0  0  0  0  0  0  0  0  0  0  0
    2.9918   -1.3884   -2.9901 H   0  0  0  0  0  0  0  0  0  0  0  0
    1.0130    0.2051   -2.8169 H   0  0  0  0  0  0  0  0  0  0  0  0
    0.2391   -1.0125   -1.7332 H   0  0  0  0  0  0  0  0  0  0  0  0
   -1.0697   -2.7391   -5.4564 H   0  0  0  0  0  0  0  0  0  0  0  0
   -4.4805   -0.1959   -4.7000 H   0  0  0  0  0  0  0  0  0  0  0  0
   -3.1070    0.9619   -2.9625 H   0  0  0  0  0  0  0  0  0  0  0  0
    4.6831    1.3225   -0.4110 H   0  0  0  0  0  0  0  0  0  0  0  0
    5.1255    3.0440    3.2734 H   0  0  0  0  0  0  0  0  0  0  0  0
    3.4056    2.8381    5.0672 H   0  0  0  0  0  0  0  0  0  0  0  0
    1.2685    1.9141    5.8726 H   0  0  0  0  0  0  0  0  0  0  0  0
   -0.0585    0.4087    4.4129 H   0  0  0  0  0  0  0  0  0  0  0  0
    0.7239   -0.1552    2.1879 H   0  0  0  0  0  0  0  0  0  0  0  0
  1  2  2  0  0  0  0
  2  3  1  0  0  0  0
  2 14  1  0  0  0  0
  3  4  1  0  0  0  0
  3 24  1  0  0  0  0
  4  5  1  0  0  0  0
  4 25  1  0  0  0  0
  4 26  1  0  0  0  0
  5  6  1  0  0  0  0
  5 27  1  0  0  0  0
  5 28  1  0  0  0  0
  6  7  1  0  0  0  0
  7  8  1  0  0  0  0
  7 13  2  0  0  0  0
  8  9  2  0  0  0  0
  8 29  1  0  0  0  0
  9 10  1  0  0  0  0
  9 11  1  0  0  0  0
 11 12  2  0  0  0  0
 11 30  1  0  0  0  0
 12 13  1  0  0  0  0
 12 31  1  0  0  0  0
 14 15  1  0  0  0  0
 14 23  2  0  0  0  0
 15 16  2  0  0  0  0
 15 32  1  0  0  0  0
 16 17  1  0  0  0  0
 17 18  2  0  0  0  0
 17 33  1  0  0  0  0
 18 19  1  0  0  0  0
 18 23  1  0  0  0  0
 19 20  2  0  0  0  0
 19 34  1  0  0  0  0
 20 21  1  0  0  0  0
 20 35  1  0  0  0  0
 21 22  2  0  0  0  0
 21 36  1  0  0  0  0
 22 23  1  0  0  0  0
 22 37  1  0  0  0  0
M  END
$$$$
