
 OpenBabel07202414193D

 46 49  0  0  1  0  0  0  0  0999 V2000
    3.1867   -1.0899   -1.9797 O   0  0  0  0  0  0  0  0  0  0  0  0
    2.4119   -0.3995   -1.1093 C   0  0  0  0  0  0  0  0  0  0  0  0
    1.2250   -0.6352   -0.9538 O   0  0  0  0  0  0  0  0  0  0  0  0
    3.1724    0.7182   -0.4112 C   0  0  0  0  0  0  0  0  0  0  0  0
    4.6436    0.4423   -0.3321 N   0  0  0  0  0  0  0  0  0  0  0  0
    4.9363   -0.6635    0.6213 C   0  0  0  0  0  0  0  0  0  0  0  0
    6.4549   -0.9748    0.6893 C   0  0  2  0  0  0  0  0  0  0  0  0
    6.6886   -1.9544    1.8511 C   0  0  0  0  0  0  0  0  0  0  0  0
    6.2808   -1.7161    2.9836 O   0  0  0  0  0  0  0  0  0  0  0  0
    7.4141   -3.0756    1.4742 N   0  0  0  0  0  0  0  0  0  0  0  0
    7.7336   -4.2106    2.2710 C   0  0  0  0  0  0  0  0  0  0  0  0
    7.3468   -4.3340    3.6058 C   0  0  0  0  0  0  0  0  0  0  0  0
    7.4608   -5.4708    4.3357 N   0  0  0  0  0  0  0  0  0  0  0  0
    8.0583   -6.5160    3.7328 C   0  0  0  0  0  0  0  0  0  0  0  0
    8.6269   -6.4742    2.4623 C   0  0  0  0  0  0  0  0  0  0  0  0
    9.3721   -7.5643    1.9688 C   0  0  0  0  0  0  0  0  0  0  0  0
    9.9758   -7.5002    0.7190 C   0  0  0  0  0  0  0  0  0  0  0  0
    9.8000   -6.3719   -0.0701 C   0  0  0  0  0  0  0  0  0  0  0  0
    9.0431   -5.2951    0.3992 C   0  0  0  0  0  0  0  0  0  0  0  0
    8.4549   -5.2976    1.6927 C   0  0  0  0  0  0  0  0  0  0  0  0
    7.3037    0.2803    0.8177 C   0  0  0  0  0  0  0  0  0  0  0  0
    8.6743    0.2063    1.1245 C   0  0  0  0  0  0  0  0  0  0  0  0
    9.4347    1.3693    1.2500 C   0  0  0  0  0  0  0  0  0  0  0  0
   11.1091    1.2587    1.6306 Cl  0  0  0  0  0  0  0  0  0  0  0  0
    8.8496    2.6172    1.0695 C   0  0  0  0  0  0  0  0  0  0  0  0
    7.5005    2.7012    0.7282 C   0  0  0  0  0  0  0  0  0  0  0  0
    6.7266    1.5387    0.5696 C   0  0  0  0  0  0  0  0  0  0  0  0
    5.2625    1.6789    0.2191 C   0  0  0  0  0  0  0  0  0  0  0  0
    4.0857   -0.7019   -1.9280 H   0  0  0  0  0  0  0  0  0  0  0  0
    2.7398    0.8841    0.5801 H   0  0  0  0  0  0  0  0  0  0  0  0
    3.0092    1.6093   -1.0309 H   0  0  0  0  0  0  0  0  0  0  0  0
    4.4317   -1.5817    0.2948 H   0  0  0  0  0  0  0  0  0  0  0  0
    4.5313   -0.4253    1.6137 H   0  0  0  0  0  0  0  0  0  0  0  0
    6.7399   -1.4474   -0.2604 H   0  0  0  0  0  0  0  0  0  0  0  0
    7.6575   -3.1460    0.4977 H   0  0  0  0  0  0  0  0  0  0  0  0
    6.9151   -3.5132    4.1684 H   0  0  0  0  0  0  0  0  0  0  0  0
    8.0741   -7.4246    4.3300 H   0  0  0  0  0  0  0  0  0  0  0  0
    9.5132   -8.4529    2.5794 H   0  0  0  0  0  0  0  0  0  0  0  0
   10.5963   -8.3206    0.3706 H   0  0  0  0  0  0  0  0  0  0  0  0
   10.2607   -6.3235   -1.0603 H   0  0  0  0  0  0  0  0  0  0  0  0
    8.9595   -4.4368   -0.2596 H   0  0  0  0  0  0  0  0  0  0  0  0
    9.1589   -0.7544    1.2812 H   0  0  0  0  0  0  0  0  0  0  0  0
    9.4351    3.5248    1.1898 H   0  0  0  0  0  0  0  0  0  0  0  0
    7.0514    3.6830    0.5898 H   0  0  0  0  0  0  0  0  0  0  0  0
    5.1637    2.4724   -0.5321 H   0  0  0  0  0  0  0  0  0  0  0  0
    4.7383    2.0030    1.1285 H   0  0  0  0  0  0  0  0  0  0  0  0
  1  2  1  0  0  0  0
  1 29  1  0  0  0  0
  2  3  2  0  0  0  0
  2  4  1  0  0  0  0
  4  5  1  0  0  0  0
  4 30  1  0  0  0  0
  4 31  1  0  0  0  0
  5  6  1  0  0  0  0
  5 28  1  0  0  0  0
  6  7  1  0  0  0  0
  6 32  1  0  0  0  0
  6 33  1  0  0  0  0
  7 21  1  0  0  0  0
  7  8  1  0  0  0  0
  7 34  1  6  0  0  0
  8  9  2  0  0  0  0
  8 10  1  0  0  0  0
 10 11  1  0  0  0  0
 10 35  1  0  0  0  0
 11 12  1  0  0  0  0
 11 20  2  0  0  0  0
 12 13  2  0  0  0  0
 12 36  1  0  0  0  0
 13 14  1  0  0  0  0
 14 15  2  0  0  0  0
 14 37  1  0  0  0  0
 15 16  1  0  0  0  0
 15 20  1  0  0  0  0
 16 17  2  0  0  0  0
 16 38  1  0  0  0  0
 17 18  1  0  0  0  0
 17 39  1  0  0  0  0
 18 19  2  0  0  0  0
 18 40  1  0  0  0  0
 19 20  1  0  0  0  0
 19 41  1  0  0  0  0
 21 22  1  0  0  0  0
 21 27  2  0  0  0  0
 22 23  2  0  0  0  0
 22 42  1  0  0  0  0
 23 24  1  0  0  0  0
 23 25  1  0  0  0  0
 25 26  2  0  0  0  0
 25 43  1  0  0  0  0
 26 27  1  0  0  0  0
 26 44  1  0  0  0  0
 27 28  1  0  0  0  0
 28 45  1  0  0  0  0
 28 46  1  0  0  0  0
M  END
$$$$
