
 OpenBabel07202414203D

 49 53  0  0  1  0  0  0  0  0999 V2000
    5.2941    1.0215   -3.2603 C   0  0  0  0  0  0  0  0  0  0  0  0
    5.1157    2.3305   -2.8283 C   0  0  0  0  0  0  0  0  0  0  0  0
    3.9141    2.7239   -2.2182 C   0  0  0  0  0  0  0  0  0  0  0  0
    2.8447    1.8133   -2.0238 C   0  0  0  0  0  0  0  0  0  0  0  0
    3.0587    0.4835   -2.4890 C   0  0  0  0  0  0  0  0  0  0  0  0
    4.2667    0.1014   -3.0923 C   0  0  0  0  0  0  0  0  0  0  0  0
    2.0328   -0.4469   -2.3456 C   0  0  0  0  0  0  0  0  0  0  0  0
    0.8413   -0.1832   -1.7844 N   0  0  0  0  0  0  0  0  0  0  0  0
    0.6490    1.0858   -1.3518 C   0  0  0  0  0  0  0  0  0  0  0  0
    1.5832    2.1293   -1.4340 C   0  0  0  0  0  0  0  0  0  0  0  0
    1.2876    3.4329   -0.9009 N   0  0  0  0  0  0  0  0  0  0  0  0
    0.0004    3.8977   -0.6814 C   0  0  0  0  0  0  0  0  0  0  0  0
   -1.0030    3.3378   -1.1294 O   0  0  0  0  0  0  0  0  0  0  0  0
   -0.1956    5.1586    0.1572 C   0  0  3  0  0  0  0  0  0  0  0  0
    0.4532    5.0909    1.5349 C   0  0  0  0  0  0  0  0  0  0  0  0
   -0.1474    6.2272    2.3533 C   0  0  0  0  0  0  0  0  0  0  0  0
    0.2006    7.5143    1.7489 N   0  0  0  0  0  0  0  0  0  0  0  0
    0.1462    7.6599    0.3653 C   0  0  0  0  0  0  0  0  0  0  0  0
    0.0281    6.5205   -0.4834 C   0  0  0  0  0  0  0  0  0  0  0  0
   -0.0390    6.6816   -1.8797 C   0  0  0  0  0  0  0  0  0  0  0  0
   -0.0076    7.9554   -2.4420 C   0  0  0  0  0  0  0  0  0  0  0  0
    0.0922    9.0774   -1.6311 C   0  0  0  0  0  0  0  0  0  0  0  0
    0.1790    8.9267   -0.2443 C   0  0  0  0  0  0  0  0  0  0  0  0
   -0.1359    8.1457   -4.1465 Cl  0  0  0  0  0  0  0  0  0  0  0  0
    0.6761    8.5773    2.6539 C   0  0  0  0  0  0  0  0  0  0  0  0
   -0.3649    9.4445    3.2737 C   0  0  0  0  0  0  0  0  0  0  0  0
   -1.6768    9.4116    2.8992 N   0  0  0  0  0  0  0  0  0  0  0  0
   -2.4119   10.2772    3.6178 N   0  0  0  0  0  0  0  0  0  0  0  0
   -1.4872   10.8177    4.4131 C   0  0  0  0  0  0  0  0  0  0  0  0
   -0.2199   10.3396    4.2349 N   0  0  0  0  0  0  0  0  0  0  0  0
    6.2246    0.7169   -3.7331 H   0  0  0  0  0  0  0  0  0  0  0  0
    5.9142    3.0537   -2.9731 H   0  0  0  0  0  0  0  0  0  0  0  0
    3.8237    3.7628   -1.9219 H   0  0  0  0  0  0  0  0  0  0  0  0
    4.4130   -0.9199   -3.4423 H   0  0  0  0  0  0  0  0  0  0  0  0
    2.1444   -1.4720   -2.6930 H   0  0  0  0  0  0  0  0  0  0  0  0
   -0.3212    1.2141   -0.8832 H   0  0  0  0  0  0  0  0  0  0  0  0
    2.0502    4.0911   -0.8095 H   0  0  0  0  0  0  0  0  0  0  0  0
   -1.2838    5.1469    0.3389 H   0  0  0  0  0  0  0  0  0  0  0  0
    1.5433    5.2023    1.4723 H   0  0  0  0  0  0  0  0  0  0  0  0
    0.2460    4.1300    2.0185 H   0  0  0  0  0  0  0  0  0  0  0  0
    0.2035    6.1632    3.3890 H   0  0  0  0  0  0  0  0  0  0  0  0
   -1.2421    6.1400    2.3947 H   0  0  0  0  0  0  0  0  0  0  0  0
   -0.1588    5.8220   -2.5358 H   0  0  0  0  0  0  0  0  0  0  0  0
    0.0858   10.0749   -2.0638 H   0  0  0  0  0  0  0  0  0  0  0  0
    0.2326    9.8377    0.3470 H   0  0  0  0  0  0  0  0  0  0  0  0
    1.4180    9.2102    2.1519 H   0  0  0  0  0  0  0  0  0  0  0  0
    1.2357    8.1100    3.4753 H   0  0  0  0  0  0  0  0  0  0  0  0
   -2.1113    8.8339    2.1870 H   0  0  0  0  0  0  0  0  0  0  0  0
   -1.7395   11.5790    5.1394 H   0  0  0  0  0  0  0  0  0  0  0  0
  1  2  1  0  0  0  0
  1  6  2  0  0  0  0
  1 31  1  0  0  0  0
  2  3  2  0  0  0  0
  2 32  1  0  0  0  0
  3  4  1  0  0  0  0
  3 33  1  0  0  0  0
  4  5  1  0  0  0  0
  4 10  2  0  0  0  0
  5  6  1  0  0  0  0
  5  7  2  0  0  0  0
  6 34  1  0  0  0  0
  7  8  1  0  0  0  0
  7 35  1  0  0  0  0
  8  9  2  0  0  0  0
  9 10  1  0  0  0  0
  9 36  1  0  0  0  0
 10 11  1  0  0  0  0
 11 12  1  0  0  0  0
 11 37  1  0  0  0  0
 12 13  2  0  0  0  0
 12 14  1  0  0  0  0
 14 15  1  0  0  0  0
 14 19  1  0  0  0  0
 14 38  1  0  0  0  0
 15 16  1  0  0  0  0
 15 39  1  0  0  0  0
 15 40  1  0  0  0  0
 16 17  1  0  0  0  0
 16 41  1  0  0  0  0
 16 42  1  0  0  0  0
 17 18  1  0  0  0  0
 17 25  1  0  0  0  0
 18 19  1  0  0  0  0
 18 23  2  0  0  0  0
 19 20  2  0  0  0  0
 20 21  1  0  0  0  0
 20 43  1  0  0  0  0
 21 22  2  0  0  0  0
 21 24  1  0  0  0  0
 22 23  1  0  0  0  0
 22 44  1  0  0  0  0
 23 45  1  0  0  0  0
 25 26  1  0  0  0  0
 25 46  1  0  0  0  0
 25 47  1  0  0  0  0
 26 27  1  0  0  0  0
 26 30  2  0  0  0  0
 27 28  1  0  0  0  0
 27 48  1  0  0  0  0
 28 29  2  0  0  0  0
 29 30  1  0  0  0  0
 29 49  1  0  0  0  0
M  END
$$$$
