
 OpenBabel07202414143D

 58 62  0  0  1  0  0  0  0  0999 V2000
    4.2531   -4.2659   -0.5481 C   0  0  0  0  0  0  0  0  0  0  0  0
    4.6229   -3.0843    0.1807 N   0  0  0  0  0  0  0  0  0  0  0  0
    3.8125   -1.9649    0.1531 C   0  0  0  0  0  0  0  0  0  0  0  0
    2.7905   -1.9186   -0.5236 O   0  0  0  0  0  0  0  0  0  0  0  0
    4.2944   -0.7617    0.9692 C   0  0  0  0  0  0  0  0  0  0  0  0
    4.9745   -1.1255    2.2308 N   0  0  0  0  0  0  0  0  0  0  0  0
    4.0988   -1.8423    3.1730 C   0  0  0  0  0  0  0  0  0  0  0  0
    3.1610   -0.9847    3.9939 C   0  0  0  0  0  0  0  0  0  0  0  0
    2.0107   -1.5817    4.5425 C   0  0  0  0  0  0  0  0  0  0  0  0
    1.1327   -0.8517    5.3501 C   0  0  0  0  0  0  0  0  0  0  0  0
    1.4129    0.4767    5.6409 C   0  0  0  0  0  0  0  0  0  0  0  0
    0.3413    1.3950    6.6180 Cl  0  0  0  0  0  0  0  0  0  0  0  0
    2.5552    1.0755    5.1154 C   0  0  0  0  0  0  0  0  0  0  0  0
    3.4465    0.3590    4.2865 C   0  0  0  0  0  0  0  0  0  0  0  0
    4.6450    1.0630    3.6274 C   0  0  3  0  0  0  0  0  0  0  0  0
    5.5061    1.8341    4.6656 C   0  0  0  0  0  0  0  0  0  0  0  0
    5.3415    3.3039    4.3317 C   0  0  0  0  0  0  0  0  0  0  0  0
    4.1486    3.3867    3.5396 N   0  0  0  0  0  0  0  0  0  0  0  0
    3.5109    4.6367    3.2690 C   0  0  0  0  0  0  0  0  0  0  0  0
    3.0980    4.9798    1.9814 C   0  0  0  0  0  0  0  0  0  0  0  0
    2.6993    6.2201    1.6085 N   0  0  0  0  0  0  0  0  0  0  0  0
    2.6329    7.1542    2.5780 C   0  0  0  0  0  0  0  0  0  0  0  0
    2.8529    6.9018    3.9284 C   0  0  0  0  0  0  0  0  0  0  0  0
    2.6263    7.8951    4.9025 C   0  0  0  0  0  0  0  0  0  0  0  0
    2.8290    7.6268    6.2546 C   0  0  0  0  0  0  0  0  0  0  0  0
    3.2533    6.3666    6.6441 C   0  0  0  0  0  0  0  0  0  0  0  0
    3.4928    6.1780    7.9784 O   0  0  0  0  0  0  0  0  0  0  0  0
    4.6265    5.3488    8.2396 C   0  0  0  0  0  0  0  0  0  0  0  0
    3.3950    5.3589    5.6873 C   0  0  0  0  0  0  0  0  0  0  0  0
    3.2825    5.6062    4.2961 C   0  0  0  0  0  0  0  0  0  0  0  0
    4.0826    2.2176    2.7521 C   0  0  0  0  0  0  0  0  0  0  0  0
    3.5564    2.1013    1.6580 O   0  0  0  0  0  0  0  0  0  0  0  0
    5.5691    0.0552    2.8843 C   0  0  0  0  0  0  0  0  0  0  0  0
    4.8808   -5.0985   -0.2267 H   0  0  0  0  0  0  0  0  0  0  0  0
    4.3847   -4.0834   -1.6174 H   0  0  0  0  0  0  0  0  0  0  0  0
    3.1999   -4.4998   -0.3544 H   0  0  0  0  0  0  0  0  0  0  0  0
    5.5139   -3.0129    0.6627 H   0  0  0  0  0  0  0  0  0  0  0  0
    3.4107   -0.1479    1.1540 H   0  0  0  0  0  0  0  0  0  0  0  0
    4.9935   -0.2109    0.3227 H   0  0  0  0  0  0  0  0  0  0  0  0
    4.7406   -2.3799    3.8845 H   0  0  0  0  0  0  0  0  0  0  0  0
    3.5257   -2.6205    2.6561 H   0  0  0  0  0  0  0  0  0  0  0  0
    1.7800   -2.6245    4.3345 H   0  0  0  0  0  0  0  0  0  0  0  0
    0.2383   -1.3247    5.7473 H   0  0  0  0  0  0  0  0  0  0  0  0
    2.7244    2.1211    5.3454 H   0  0  0  0  0  0  0  0  0  0  0  0
    6.5720    1.5832    4.6155 H   0  0  0  0  0  0  0  0  0  0  0  0
    5.1940    1.6341    5.6961 H   0  0  0  0  0  0  0  0  0  0  0  0
    6.1715    3.6367    3.6943 H   0  0  0  0  0  0  0  0  0  0  0  0
    5.3644    3.9151    5.2308 H   0  0  0  0  0  0  0  0  0  0  0  0
    3.1126    4.2751    1.1564 H   0  0  0  0  0  0  0  0  0  0  0  0
    2.3675    8.1479    2.2255 H   0  0  0  0  0  0  0  0  0  0  0  0
    2.2744    8.8830    4.6123 H   0  0  0  0  0  0  0  0  0  0  0  0
    2.6537    8.3984    6.9996 H   0  0  0  0  0  0  0  0  0  0  0  0
    4.9808    5.5609    9.2520 H   0  0  0  0  0  0  0  0  0  0  0  0
    5.4557    5.5550    7.5497 H   0  0  0  0  0  0  0  0  0  0  0  0
    4.3456    4.2917    8.1927 H   0  0  0  0  0  0  0  0  0  0  0  0
    3.5554    4.3467    6.0407 H   0  0  0  0  0  0  0  0  0  0  0  0
    6.2641   -0.3665    3.6255 H   0  0  0  0  0  0  0  0  0  0  0  0
    6.2164    0.5883    2.1751 H   0  0  0  0  0  0  0  0  0  0  0  0
  1  2  1  0  0  0  0
  1 34  1  0  0  0  0
  1 35  1  0  0  0  0
  1 36  1  0  0  0  0
  2  3  1  0  0  0  0
  2 37  1  0  0  0  0
  3  4  2  0  0  0  0
  3  5  1  0  0  0  0
  5  6  1  0  0  0  0
  5 38  1  0  0  0  0
  5 39  1  0  0  0  0
  6  7  1  0  0  0  0
  6 33  1  0  0  0  0
  7  8  1  0  0  0  0
  7 40  1  0  0  0  0
  7 41  1  0  0  0  0
  8  9  1  0  0  0  0
  8 14  2  0  0  0  0
  9 10  2  0  0  0  0
  9 42  1  0  0  0  0
 10 11  1  0  0  0  0
 10 43  1  0  0  0  0
 11 12  1  0  0  0  0
 11 13  2  0  0  0  0
 13 14  1  0  0  0  0
 13 44  1  0  0  0  0
 14 15  1  0  0  0  0
 15 16  1  0  0  0  0
 15 31  1  0  0  0  0
 15 33  1  0  0  0  0
 16 17  1  0  0  0  0
 16 45  1  0  0  0  0
 16 46  1  0  0  0  0
 17 18  1  0  0  0  0
 17 47  1  0  0  0  0
 17 48  1  0  0  0  0
 18 19  1  0  0  0  0
 18 31  1  0  0  0  0
 19 20  1  0  0  0  0
 19 30  2  0  0  0  0
 20 21  2  0  0  0  0
 20 49  1  0  0  0  0
 21 22  1  0  0  0  0
 22 23  2  0  0  0  0
 22 50  1  0  0  0  0
 23 24  1  0  0  0  0
 23 30  1  0  0  0  0
 24 25  2  0  0  0  0
 24 51  1  0  0  0  0
 25 26  1  0  0  0  0
 25 52  1  0  0  0  0
 26 27  1  0  0  0  0
 26 29  2  0  0  0  0
 27 28  1  0  0  0  0
 28 53  1  0  0  0  0
 28 54  1  0  0  0  0
 28 55  1  0  0  0  0
 29 30  1  0  0  0  0
 29 56  1  0  0  0  0
 31 32  2  0  0  0  0
 33 57  1  0  0  0  0
 33 58  1  0  0  0  0
M  END
$$$$
