
 OpenBabel07202414163D

 37 38  0  0  0  0  0  0  0  0999 V2000
   -7.6370   -1.9085   -4.3715 C   0  0  0  0  0  0  0  0  0  0  0  0
   -6.6060   -1.4258   -3.3933 C   0  0  0  0  0  0  0  0  0  0  0  0
   -5.6327   -0.4892   -3.7684 C   0  0  0  0  0  0  0  0  0  0  0  0
   -4.6964   -0.0287   -2.8387 C   0  0  0  0  0  0  0  0  0  0  0  0
   -4.7424   -0.4987   -1.5255 C   0  0  0  0  0  0  0  0  0  0  0  0
   -3.5248    0.0406   -0.3470 S   0  0  0  0  0  0  0  0  0  0  0  0
   -3.3429   -1.0367    0.6023 O   0  0  0  0  0  0  0  0  0  0  0  0
   -2.4000    0.5784   -1.0827 O   0  0  0  0  0  0  0  0  0  0  0  0
   -4.2756    1.3085    0.4604 N   0  0  0  0  0  0  0  0  0  0  0  0
   -4.3836    2.6585   -0.1428 C   0  0  0  0  0  0  0  0  0  0  0  0
   -4.5396    3.7295    0.9841 C   0  0  0  0  0  0  0  0  0  0  0  0
   -5.4932    3.3339    2.0500 N   0  0  0  0  0  0  0  0  0  0  0  0
   -6.4965    4.0970    2.6212 C   0  0  0  0  0  0  0  0  0  0  0  0
   -7.2242    3.6520    3.5104 O   0  0  0  0  0  0  0  0  0  0  0  0
   -6.7328    5.5070    2.1116 C   0  0  0  0  0  0  0  0  0  0  0  0
   -7.8578    5.4273    0.7415 Cl  0  0  0  0  0  0  0  0  0  0  0  0
   -5.3330    1.9562    2.5251 C   0  0  0  0  0  0  0  0  0  0  0  0
   -5.4300    1.0033    1.3319 C   0  0  0  0  0  0  0  0  0  0  0  0
   -5.6814   -1.4651   -1.1503 C   0  0  0  0  0  0  0  0  0  0  0  0
   -6.6149   -1.9195   -2.0820 C   0  0  0  0  0  0  0  0  0  0  0  0
   -7.5088   -1.4449   -5.3547 H   0  0  0  0  0  0  0  0  0  0  0  0
   -8.6390   -1.6554   -4.0090 H   0  0  0  0  0  0  0  0  0  0  0  0
   -7.5640   -2.9936   -4.4961 H   0  0  0  0  0  0  0  0  0  0  0  0
   -5.5927   -0.1179   -4.7908 H   0  0  0  0  0  0  0  0  0  0  0  0
   -3.9312    0.6788   -3.1504 H   0  0  0  0  0  0  0  0  0  0  0  0
   -5.2539    2.6965   -0.8067 H   0  0  0  0  0  0  0  0  0  0  0  0
   -3.4916    2.9031   -0.7313 H   0  0  0  0  0  0  0  0  0  0  0  0
   -4.8180    4.6846    0.5330 H   0  0  0  0  0  0  0  0  0  0  0  0
   -3.5714    3.8710    1.4791 H   0  0  0  0  0  0  0  0  0  0  0  0
   -5.8120    6.0034    1.8084 H   0  0  0  0  0  0  0  0  0  0  0  0
   -7.1894    6.0990    2.9089 H   0  0  0  0  0  0  0  0  0  0  0  0
   -6.0763    1.6865    3.2777 H   0  0  0  0  0  0  0  0  0  0  0  0
   -4.3401    1.8804    2.9933 H   0  0  0  0  0  0  0  0  0  0  0  0
   -6.3635    1.1822    0.7793 H   0  0  0  0  0  0  0  0  0  0  0  0
   -5.4312   -0.0317    1.6782 H   0  0  0  0  0  0  0  0  0  0  0  0
   -5.6869   -1.8784   -0.1443 H   0  0  0  0  0  0  0  0  0  0  0  0
   -7.3468   -2.6687   -1.7846 H   0  0  0  0  0  0  0  0  0  0  0  0
  1  2  1  0  0  0  0
  1 21  1  0  0  0  0
  1 22  1  0  0  0  0
  1 23  1  0  0  0  0
  2  3  1  0  0  0  0
  2 20  2  0  0  0  0
  3  4  2  0  0  0  0
  3 24  1  0  0  0  0
  4  5  1  0  0  0  0
  4 25  1  0  0  0  0
  5  6  1  0  0  0  0
  5 19  2  0  0  0  0
  6  7  2  0  0  0  0
  6  8  2  0  0  0  0
  6  9  1  0  0  0  0
  9 10  1  0  0  0  0
  9 18  1  0  0  0  0
 10 11  1  0  0  0  0
 10 26  1  0  0  0  0
 10 27  1  0  0  0  0
 11 12  1  0  0  0  0
 11 28  1  0  0  0  0
 11 29  1  0  0  0  0
 12 13  1  0  0  0  0
 12 17  1  0  0  0  0
 13 14  2  0  0  0  0
 13 15  1  0  0  0  0
 15 16  1  0  0  0  0
 15 30  1  0  0  0  0
 15 31  1  0  0  0  0
 17 18  1  0  0  0  0
 17 32  1  0  0  0  0
 17 33  1  0  0  0  0
 18 34  1  0  0  0  0
 18 35  1  0  0  0  0
 19 20  1  0  0  0  0
 19 36  1  0  0  0  0
 20 37  1  0  0  0  0
M  END
$$$$
