
 OpenBabel07202414153D

 46 49  0  0  1  0  0  0  0  0999 V2000
    3.6348   -0.0667    1.7395 C   0  0  0  0  0  0  0  0  0  0  0  0
    3.1321    0.0581    0.0358 S   0  0  0  0  0  0  0  0  0  0  0  0
    1.6997   -0.1033   -0.0025 O   0  0  0  0  0  0  0  0  0  0  0  0
    3.7714    1.2303   -0.5310 O   0  0  0  0  0  0  0  0  0  0  0  0
    3.8147   -1.2763   -0.6973 N   0  0  0  0  0  0  0  0  0  0  0  0
    3.4632   -2.6238   -0.2079 C   0  0  0  0  0  0  0  0  0  0  0  0
    3.5155   -3.6222   -1.3612 C   0  0  0  0  0  0  0  0  0  0  0  0
    4.7529   -3.4907   -2.2163 C   0  0  0  0  0  0  0  0  0  0  0  0
    5.0846   -4.5264   -3.1020 C   0  0  0  0  0  0  0  0  0  0  0  0
    6.1508   -4.3844   -3.9895 C   0  0  0  0  0  0  0  0  0  0  0  0
    6.8792   -3.1994   -4.0092 C   0  0  0  0  0  0  0  0  0  0  0  0
    8.1602   -3.0021   -5.1407 Cl  0  0  0  0  0  0  0  0  0  0  0  0
    6.5712   -2.1644   -3.1278 C   0  0  0  0  0  0  0  0  0  0  0  0
    5.5123   -2.3035   -2.2130 C   0  0  0  0  0  0  0  0  0  0  0  0
    5.1902   -1.1657   -1.2503 C   0  0  3  0  0  0  0  0  0  0  0  0
    6.2605   -1.0529   -0.1326 C   0  0  0  0  0  0  0  0  0  0  0  0
    6.4759   -1.9727    0.6564 O   0  0  0  0  0  0  0  0  0  0  0  0
    6.8928    0.1846   -0.1032 N   0  0  0  0  0  0  0  0  0  0  0  0
    7.8742    0.6400    0.8241 C   0  0  0  0  0  0  0  0  0  0  0  0
    8.3565   -0.1420    1.8737 C   0  0  0  0  0  0  0  0  0  0  0  0
    9.1267    0.3242    2.8859 N   0  0  0  0  0  0  0  0  0  0  0  0
    9.5014    1.6165    2.8130 C   0  0  0  0  0  0  0  0  0  0  0  0
    9.2208    2.4584    1.7392 C   0  0  0  0  0  0  0  0  0  0  0  0
    9.7767    3.7491    1.6647 C   0  0  0  0  0  0  0  0  0  0  0  0
    9.5117    4.5753    0.5762 C   0  0  0  0  0  0  0  0  0  0  0  0
    8.6662    4.1319   -0.4307 C   0  0  0  0  0  0  0  0  0  0  0  0
    8.1043    2.8537   -0.3628 C   0  0  0  0  0  0  0  0  0  0  0  0
    8.3721    1.9717    0.7157 C   0  0  0  0  0  0  0  0  0  0  0  0
    3.2260    0.8017    2.2602 H   0  0  0  0  0  0  0  0  0  0  0  0
    4.7197   -0.0454    1.8054 H   0  0  0  0  0  0  0  0  0  0  0  0
    3.2235   -0.9796    2.1708 H   0  0  0  0  0  0  0  0  0  0  0  0
    2.4523   -2.6352    0.2142 H   0  0  0  0  0  0  0  0  0  0  0  0
    4.1489   -2.9237    0.5911 H   0  0  0  0  0  0  0  0  0  0  0  0
    2.6462   -3.4634   -2.0123 H   0  0  0  0  0  0  0  0  0  0  0  0
    3.4458   -4.6377   -0.9542 H   0  0  0  0  0  0  0  0  0  0  0  0
    4.4997   -5.4439   -3.1159 H   0  0  0  0  0  0  0  0  0  0  0  0
    6.3942   -5.1935   -4.6726 H   0  0  0  0  0  0  0  0  0  0  0  0
    7.1476   -1.2427   -3.1682 H   0  0  0  0  0  0  0  0  0  0  0  0
    5.2155   -0.2594   -1.8685 H   0  0  0  0  0  0  0  0  0  0  0  0
    6.4972    0.8979   -0.7019 H   0  0  0  0  0  0  0  0  0  0  0  0
    8.1375   -1.2006    1.9656 H   0  0  0  0  0  0  0  0  0  0  0  0
   10.0630    1.9698    3.6746 H   0  0  0  0  0  0  0  0  0  0  0  0
   10.4506    4.1063    2.4414 H   0  0  0  0  0  0  0  0  0  0  0  0
    9.9728    5.5577    0.5087 H   0  0  0  0  0  0  0  0  0  0  0  0
    8.4528    4.7721   -1.2835 H   0  0  0  0  0  0  0  0  0  0  0  0
    7.4812    2.5521   -1.1998 H   0  0  0  0  0  0  0  0  0  0  0  0
  1  2  1  0  0  0  0
  1 29  1  0  0  0  0
  1 30  1  0  0  0  0
  1 31  1  0  0  0  0
  2  3  2  0  0  0  0
  2  4  2  0  0  0  0
  2  5  1  0  0  0  0
  5  6  1  0  0  0  0
  5 15  1  0  0  0  0
  6  7  1  0  0  0  0
  6 32  1  0  0  0  0
  6 33  1  0  0  0  0
  7  8  1  0  0  0  0
  7 34  1  0  0  0  0
  7 35  1  0  0  0  0
  8  9  1  0  0  0  0
  8 14  2  0  0  0  0
  9 10  2  0  0  0  0
  9 36  1  0  0  0  0
 10 11  1  0  0  0  0
 10 37  1  0  0  0  0
 11 12  1  0  0  0  0
 11 13  2  0  0  0  0
 13 14  1  0  0  0  0
 13 38  1  0  0  0  0
 14 15  1  0  0  0  0
 15 16  1  0  0  0  0
 15 39  1  0  0  0  0
 16 17  2  0  0  0  0
 16 18  1  0  0  0  0
 18 19  1  0  0  0  0
 18 40  1  0  0  0  0
 19 20  1  0  0  0  0
 19 28  2  0  0  0  0
 20 21  2  0  0  0  0
 20 41  1  0  0  0  0
 21 22  1  0  0  0  0
 22 23  2  0  0  0  0
 22 42  1  0  0  0  0
 23 24  1  0  0  0  0
 23 28  1  0  0  0  0
 24 25  2  0  0  0  0
 24 43  1  0  0  0  0
 25 26  1  0  0  0  0
 25 44  1  0  0  0  0
 26 27  2  0  0  0  0
 26 45  1  0  0  0  0
 27 28  1  0  0  0  0
 27 46  1  0  0  0  0
M  END
$$$$
