
 OpenBabel07202414203D

 49 52  0  0  1  0  0  0  0  0999 V2000
   -2.4994    0.0000   -1.6942 C   0  0  0  0  0  0  0  0  0  0  0  0
   -1.3124   -0.2295   -2.4005 C   0  0  0  0  0  0  0  0  0  0  0  0
   -0.5957   -1.4025   -2.1898 C   0  0  0  0  0  0  0  0  0  0  0  0
   -1.0503   -2.3504   -1.2714 C   0  0  0  0  0  0  0  0  0  0  0  0
   -2.2691   -2.1348   -0.6084 C   0  0  0  0  0  0  0  0  0  0  0  0
   -3.0272   -0.9680   -0.8349 C   0  0  0  0  0  0  0  0  0  0  0  0
   -4.2846   -0.8002   -0.0342 C   0  0  0  0  0  0  0  0  0  0  0  0
   -4.2767   -1.3174    1.0868 O   0  0  0  0  0  0  0  0  0  0  0  0
   -5.4255   -0.1246   -0.5161 N   0  0  0  0  0  0  0  0  0  0  0  0
   -6.4805    0.1387    0.4662 C   0  0  0  0  0  0  0  0  0  0  0  0
   -7.8775    0.2346   -0.1461 C   0  0  0  0  0  0  0  0  0  0  0  0
   -7.9685    1.2109   -1.3339 C   0  0  0  0  0  0  0  0  0  0  0  0
   -6.8868    0.7841   -2.3409 C   0  0  0  0  0  0  0  0  0  0  0  0
   -5.4893    0.6608   -1.7431 C   0  0  0  0  0  0  0  0  0  0  0  0
   -7.9075    2.7153   -0.9313 C   0  0  3  0  0  0  0  0  0  0  0  0
   -9.0895    3.1557   -0.0573 C   0  0  0  0  0  0  0  0  0  0  0  0
  -10.1065    3.6697   -1.0551 C   0  0  0  0  0  0  0  0  0  0  0  0
   -9.2939    4.4068   -2.0203 N   0  0  0  0  0  0  0  0  0  0  0  0
   -8.0268    3.6705   -2.1379 C   0  0  0  0  0  0  0  0  0  0  0  0
   -0.1483   -3.4997   -0.9128 C   0  0  0  0  0  0  0  0  0  0  0  0
    0.6824   -3.9393   -2.1080 C   0  0  0  0  0  0  0  0  0  0  0  0
    1.3359   -2.7680   -2.8042 C   0  0  0  0  0  0  0  0  0  0  0  0
    2.4162   -2.8663   -3.3828 O   0  0  0  0  0  0  0  0  0  0  0  0
    0.6111   -1.6081   -2.8629 N   0  0  0  0  0  0  0  0  0  0  0  0
   -2.9722    0.9664   -1.8163 H   0  0  0  0  0  0  0  0  0  0  0  0
   -0.9524    0.5255   -3.0938 H   0  0  0  0  0  0  0  0  0  0  0  0
   -2.6168   -2.8664    0.1216 H   0  0  0  0  0  0  0  0  0  0  0  0
   -6.2179    1.0682    0.9838 H   0  0  0  0  0  0  0  0  0  0  0  0
   -6.4963   -0.6535    1.2237 H   0  0  0  0  0  0  0  0  0  0  0  0
   -8.5995    0.4809    0.6373 H   0  0  0  0  0  0  0  0  0  0  0  0
   -8.1608   -0.7635   -0.5076 H   0  0  0  0  0  0  0  0  0  0  0  0
   -8.9407    1.0463   -1.8178 H   0  0  0  0  0  0  0  0  0  0  0  0
   -6.8396    1.4568   -3.2018 H   0  0  0  0  0  0  0  0  0  0  0  0
   -7.1704   -0.1957   -2.7472 H   0  0  0  0  0  0  0  0  0  0  0  0
   -5.0921    1.6553   -1.5091 H   0  0  0  0  0  0  0  0  0  0  0  0
   -4.8624    0.2000   -2.5085 H   0  0  0  0  0  0  0  0  0  0  0  0
   -6.9725    2.9103   -0.3930 H   0  0  0  0  0  0  0  0  0  0  0  0
   -8.7725    3.9776    0.5985 H   0  0  0  0  0  0  0  0  0  0  0  0
   -9.5101    2.3755    0.5788 H   0  0  0  0  0  0  0  0  0  0  0  0
  -10.8590    4.3136   -0.5899 H   0  0  0  0  0  0  0  0  0  0  0  0
  -10.6270    2.8450   -1.5550 H   0  0  0  0  0  0  0  0  0  0  0  0
   -9.1001    5.3354   -1.6438 H   0  0  0  0  0  0  0  0  0  0  0  0
   -7.1929    4.3815   -2.1461 H   0  0  0  0  0  0  0  0  0  0  0  0
   -8.0238    3.1552   -3.1005 H   0  0  0  0  0  0  0  0  0  0  0  0
   -0.7285   -4.3503   -0.5390 H   0  0  0  0  0  0  0  0  0  0  0  0
    0.5138   -3.1671   -0.1024 H   0  0  0  0  0  0  0  0  0  0  0  0
    0.0566   -4.4528   -2.8474 H   0  0  0  0  0  0  0  0  0  0  0  0
    1.4617   -4.6349   -1.7780 H   0  0  0  0  0  0  0  0  0  0  0  0
    1.0097   -0.8731   -3.4329 H   0  0  0  0  0  0  0  0  0  0  0  0
  1  2  1  0  0  0  0
  1  6  2  0  0  0  0
  1 25  1  0  0  0  0
  2  3  2  0  0  0  0
  2 26  1  0  0  0  0
  3  4  1  0  0  0  0
  3 24  1  0  0  0  0
  4  5  2  0  0  0  0
  4 20  1  0  0  0  0
  5  6  1  0  0  0  0
  5 27  1  0  0  0  0
  6  7  1  0  0  0  0
  7  8  2  0  0  0  0
  7  9  1  0  0  0  0
  9 10  1  0  0  0  0
  9 14  1  0  0  0  0
 10 11  1  0  0  0  0
 10 28  1  0  0  0  0
 10 29  1  0  0  0  0
 11 12  1  0  0  0  0
 11 30  1  0  0  0  0
 11 31  1  0  0  0  0
 12 13  1  0  0  0  0
 12 15  1  0  0  0  0
 12 32  1  0  0  0  0
 13 14  1  0  0  0  0
 13 33  1  0  0  0  0
 13 34  1  0  0  0  0
 14 35  1  0  0  0  0
 14 36  1  0  0  0  0
 15 16  1  0  0  0  0
 15 19  1  0  0  0  0
 15 37  1  0  0  0  0
 16 17  1  0  0  0  0
 16 38  1  0  0  0  0
 16 39  1  0  0  0  0
 17 18  1  0  0  0  0
 17 40  1  0  0  0  0
 17 41  1  0  0  0  0
 18 19  1  0  0  0  0
 18 42  1  0  0  0  0
 19 43  1  0  0  0  0
 19 44  1  0  0  0  0
 20 21  1  0  0  0  0
 20 45  1  0  0  0  0
 20 46  1  0  0  0  0
 21 22  1  0  0  0  0
 21 47  1  0  0  0  0
 21 48  1  0  0  0  0
 22 23  2  0  0  0  0
 22 24  1  0  0  0  0
 24 49  1  0  0  0  0
M  END
$$$$
