
 OpenBabel07202414133D

 48 52  0  0  0  0  0  0  0  0999 V2000
    1.0903   -0.3308   -0.2318 C   0  0  0  0  0  0  0  0  0  0  0  0
    2.4699   -0.2683    0.2260 N   0  0  0  0  0  0  0  0  0  0  0  0
    3.3869   -1.2050   -0.2593 C   0  0  0  0  0  0  0  0  0  0  0  0
    3.0810   -2.3297   -0.6280 O   0  0  0  0  0  0  0  0  0  0  0  0
    4.6072   -0.5878   -0.3942 N   0  0  0  0  0  0  0  0  0  0  0  0
    5.7449   -1.2634   -0.9033 C   0  0  0  0  0  0  0  0  0  0  0  0
    6.3865   -0.8167   -2.0627 C   0  0  0  0  0  0  0  0  0  0  0  0
    7.5272   -1.3411   -2.5609 N   0  0  0  0  0  0  0  0  0  0  0  0
    8.0923   -2.3381   -1.8492 C   0  0  0  0  0  0  0  0  0  0  0  0
    7.5645   -2.8703   -0.6719 C   0  0  0  0  0  0  0  0  0  0  0  0
    8.2487   -3.8804    0.0297 C   0  0  0  0  0  0  0  0  0  0  0  0
    7.7319   -4.4037    1.2105 C   0  0  0  0  0  0  0  0  0  0  0  0
    6.5196   -3.9295    1.6964 C   0  0  0  0  0  0  0  0  0  0  0  0
    5.8389   -2.9151    1.0111 C   0  0  0  0  0  0  0  0  0  0  0  0
    6.3408   -2.3517   -0.1892 C   0  0  0  0  0  0  0  0  0  0  0  0
    4.4142    0.7792   -0.3992 C   0  0  0  0  0  0  0  0  0  0  0  0
    5.1027    1.5859   -1.0198 O   0  0  0  0  0  0  0  0  0  0  0  0
    3.1000    1.1133    0.5744 C   0  0  0  0  0  0  0  0  0  0  0  0
    2.3895    1.1266    2.0442 C   0  0  0  0  0  0  0  0  0  0  0  0
    3.3034    2.0843    2.6552 N   0  0  0  0  0  0  0  0  0  0  0  0
    3.6839    2.1275    4.3222 S   0  0  0  0  0  0  0  0  0  0  0  0
    3.5742    0.7714    4.8229 O   0  0  0  0  0  0  0  0  0  0  0  0
    4.9224    2.8623    4.4536 O   0  0  0  0  0  0  0  0  0  0  0  0
    2.3911    3.0917    5.0643 C   0  0  0  0  0  0  0  0  0  0  0  0
    1.2497    2.4551    5.5644 C   0  0  0  0  0  0  0  0  0  0  0  0
    0.3452    3.1745    6.3489 C   0  0  0  0  0  0  0  0  0  0  0  0
    0.5846    4.5189    6.6394 C   0  0  0  0  0  0  0  0  0  0  0  0
    1.7166    5.1556    6.1296 C   0  0  0  0  0  0  0  0  0  0  0  0
    2.6226    4.4447    5.3406 C   0  0  0  0  0  0  0  0  0  0  0  0
    4.2881    1.5346    1.7171 C   0  0  0  0  0  0  0  0  0  0  0  0
    0.7931   -1.3617   -0.4385 H   0  0  0  0  0  0  0  0  0  0  0  0
    1.0026    0.2522   -1.1547 H   0  0  0  0  0  0  0  0  0  0  0  0
    0.4241    0.0898    0.5241 H   0  0  0  0  0  0  0  0  0  0  0  0
    5.9727   -0.0151   -2.6664 H   0  0  0  0  0  0  0  0  0  0  0  0
    9.0310   -2.7027   -2.2598 H   0  0  0  0  0  0  0  0  0  0  0  0
    9.2062   -4.2545   -0.3301 H   0  0  0  0  0  0  0  0  0  0  0  0
    8.2706   -5.1760    1.7522 H   0  0  0  0  0  0  0  0  0  0  0  0
    6.1051   -4.3345    2.6140 H   0  0  0  0  0  0  0  0  0  0  0  0
    4.8979   -2.5794    1.4401 H   0  0  0  0  0  0  0  0  0  0  0  0
    2.3953    0.1562    2.5697 H   0  0  0  0  0  0  0  0  0  0  0  0
    1.3552    1.4869    2.0528 H   0  0  0  0  0  0  0  0  0  0  0  0
    1.0824    1.3946    5.3910 H   0  0  0  0  0  0  0  0  0  0  0  0
   -0.5291    2.6799    6.7664 H   0  0  0  0  0  0  0  0  0  0  0  0
   -0.1010    5.0666    7.2826 H   0  0  0  0  0  0  0  0  0  0  0  0
    1.9112    6.1971    6.3760 H   0  0  0  0  0  0  0  0  0  0  0  0
    3.5261    4.9375    4.9876 H   0  0  0  0  0  0  0  0  0  0  0  0
    4.8747    0.7021    2.1281 H   0  0  0  0  0  0  0  0  0  0  0  0
    4.9759    2.3371    1.4158 H   0  0  0  0  0  0  0  0  0  0  0  0
  1  2  1  0  0  0  0
  1 31  1  0  0  0  0
  1 32  1  0  0  0  0
  1 33  1  0  0  0  0
  2  3  1  0  0  0  0
  2 18  1  0  0  0  0
  3  4  2  0  0  0  0
  3  5  1  0  0  0  0
  5  6  1  0  0  0  0
  5 16  1  0  0  0  0
  6  7  1  0  0  0  0
  6 15  2  0  0  0  0
  7  8  2  0  0  0  0
  7 34  1  0  0  0  0
  8  9  1  0  0  0  0
  9 10  2  0  0  0  0
  9 35  1  0  0  0  0
 10 11  1  0  0  0  0
 10 15  1  0  0  0  0
 11 12  2  0  0  0  0
 11 36  1  0  0  0  0
 12 13  1  0  0  0  0
 12 37  1  0  0  0  0
 13 14  2  0  0  0  0
 13 38  1  0  0  0  0
 14 15  1  0  0  0  0
 14 39  1  0  0  0  0
 16 17  2  0  0  0  0
 16 18  1  0  0  0  0
 18 19  1  0  0  0  0
 18 30  1  0  0  0  0
 19 20  1  0  0  0  0
 19 40  1  0  0  0  0
 19 41  1  0  0  0  0
 20 21  1  0  0  0  0
 20 30  1  0  0  0  0
 21 22  2  0  0  0  0
 21 23  2  0  0  0  0
 21 24  1  0  0  0  0
 24 25  1  0  0  0  0
 24 29  2  0  0  0  0
 25 26  2  0  0  0  0
 25 42  1  0  0  0  0
 26 27  1  0  0  0  0
 26 43  1  0  0  0  0
 27 28  2  0  0  0  0
 27 44  1  0  0  0  0
 28 29  1  0  0  0  0
 28 45  1  0  0  0  0
 29 46  1  0  0  0  0
 30 47  1  0  0  0  0
 30 48  1  0  0  0  0
M  END
$$$$
