
 OpenBabel07202414143D

 51 54  0  0  1  0  0  0  0  0999 V2000
    8.7303    2.3740    2.2333 C   0  0  0  0  0  0  0  0  0  0  0  0
    7.8610    1.3270    1.7962 O   0  0  0  0  0  0  0  0  0  0  0  0
    8.1616    0.8644    0.5586 C   0  0  0  0  0  0  0  0  0  0  0  0
    9.0349    1.2891   -0.1808 O   0  0  0  0  0  0  0  0  0  0  0  0
    7.2883   -0.2812    0.2512 C   0  0  0  0  0  0  0  0  0  0  0  0
    7.5521   -0.9831   -0.8616 C   0  0  0  0  0  0  0  0  0  0  0  0
    6.7778   -2.2140   -1.1819 C   0  0  0  0  0  0  0  0  0  0  0  0
    5.6249   -2.3409   -0.7872 O   0  0  0  0  0  0  0  0  0  0  0  0
    7.4843   -3.1627   -1.9374 N   0  0  0  0  0  0  0  0  0  0  0  0
    6.6963   -4.2701   -2.4026 C   0  0  0  0  0  0  0  0  0  0  0  0
    6.6355   -5.4431   -1.6472 C   0  0  0  0  0  0  0  0  0  0  0  0
    5.9860   -6.5624   -2.0306 N   0  0  0  0  0  0  0  0  0  0  0  0
    5.3148   -6.4966   -3.2026 C   0  0  0  0  0  0  0  0  0  0  0  0
    5.2284   -5.3565   -4.0026 C   0  0  0  0  0  0  0  0  0  0  0  0
    5.9264   -4.1957   -3.5905 C   0  0  0  0  0  0  0  0  0  0  0  0
    5.8013   -3.0388   -4.3946 C   0  0  0  0  0  0  0  0  0  0  0  0
    4.9968   -3.0312   -5.5387 C   0  0  0  0  0  0  0  0  0  0  0  0
    4.3292   -4.1855   -5.9328 C   0  0  0  0  0  0  0  0  0  0  0  0
    4.4565   -5.3483   -5.1776 C   0  0  0  0  0  0  0  0  0  0  0  0
    8.8192   -3.4283   -1.6019 C   0  0  0  0  0  0  0  0  0  0  0  0
    9.2714   -3.2300   -0.4720 O   0  0  0  0  0  0  0  0  0  0  0  0
    9.7251   -3.9197   -2.7579 C   0  0  2  0  0  0  0  0  0  0  0  0
   10.6048   -5.0956   -2.3191 C   0  0  0  0  0  0  0  0  0  0  0  0
   11.8015   -4.6221   -1.5037 C   0  0  0  0  0  0  0  0  0  0  0  0
   12.6326   -3.7145   -2.2237 O   0  0  0  0  0  0  0  0  0  0  0  0
   11.9711   -2.7329   -2.9053 C   0  0  0  0  0  0  0  0  0  0  0  0
   10.6125   -2.7878   -3.2433 C   0  0  0  0  0  0  0  0  0  0  0  0
   10.0762   -1.7562   -4.0305 C   0  0  0  0  0  0  0  0  0  0  0  0
   10.8724   -0.6769   -4.4235 C   0  0  0  0  0  0  0  0  0  0  0  0
   12.2131   -0.6137   -4.0531 C   0  0  0  0  0  0  0  0  0  0  0  0
   12.7656   -1.6536   -3.3088 C   0  0  0  0  0  0  0  0  0  0  0  0
   10.1847    0.5851   -5.3674 Cl  0  0  0  0  0  0  0  0  0  0  0  0
    8.3570    2.7549    3.1878 H   0  0  0  0  0  0  0  0  0  0  0  0
    8.7437    3.2003    1.5147 H   0  0  0  0  0  0  0  0  0  0  0  0
    9.7413    1.9823    2.3878 H   0  0  0  0  0  0  0  0  0  0  0  0
    6.5091   -0.5514    0.9546 H   0  0  0  0  0  0  0  0  0  0  0  0
    8.3533   -0.6996   -1.5349 H   0  0  0  0  0  0  0  0  0  0  0  0
    7.0851   -5.5028   -0.6586 H   0  0  0  0  0  0  0  0  0  0  0  0
    4.8114   -7.4201   -3.4799 H   0  0  0  0  0  0  0  0  0  0  0  0
    6.3002   -2.1126   -4.1199 H   0  0  0  0  0  0  0  0  0  0  0  0
    4.8801   -2.1164   -6.1151 H   0  0  0  0  0  0  0  0  0  0  0  0
    3.6965   -4.1768   -6.8174 H   0  0  0  0  0  0  0  0  0  0  0  0
    3.9269   -6.2439   -5.4988 H   0  0  0  0  0  0  0  0  0  0  0  0
    9.1064   -4.2624   -3.5954 H   0  0  0  0  0  0  0  0  0  0  0  0
   10.9872   -5.5971   -3.2192 H   0  0  0  0  0  0  0  0  0  0  0  0
   10.0278   -5.8333   -1.7520 H   0  0  0  0  0  0  0  0  0  0  0  0
   12.4265   -5.4863   -1.2505 H   0  0  0  0  0  0  0  0  0  0  0  0
   11.5151   -4.1608   -0.5538 H   0  0  0  0  0  0  0  0  0  0  0  0
    9.0362   -1.7886   -4.3450 H   0  0  0  0  0  0  0  0  0  0  0  0
   12.8313    0.2317   -4.3415 H   0  0  0  0  0  0  0  0  0  0  0  0
   13.8170   -1.6216   -3.0285 H   0  0  0  0  0  0  0  0  0  0  0  0
  1  2  1  0  0  0  0
  1 33  1  0  0  0  0
  1 34  1  0  0  0  0
  1 35  1  0  0  0  0
  2  3  1  0  0  0  0
  3  4  2  0  0  0  0
  3  5  1  0  0  0  0
  5  6  2  0  0  0  0
  5 36  1  0  0  0  0
  6  7  1  0  0  0  0
  6 37  1  0  0  0  0
  7  8  2  0  0  0  0
  7  9  1  0  0  0  0
  9 10  1  0  0  0  0
  9 20  1  0  0  0  0
 10 11  1  0  0  0  0
 10 15  2  0  0  0  0
 11 12  2  0  0  0  0
 11 38  1  0  0  0  0
 12 13  1  0  0  0  0
 13 14  2  0  0  0  0
 13 39  1  0  0  0  0
 14 15  1  0  0  0  0
 14 19  1  0  0  0  0
 15 16  1  0  0  0  0
 16 17  2  0  0  0  0
 16 40  1  0  0  0  0
 17 18  1  0  0  0  0
 17 41  1  0  0  0  0
 18 19  2  0  0  0  0
 18 42  1  0  0  0  0
 19 43  1  0  0  0  0
 20 21  2  0  0  0  0
 20 22  1  0  0  0  0
 22 23  1  0  0  0  0
 22 27  1  0  0  0  0
 22 44  1  6  0  0  0
 23 24  1  0  0  0  0
 23 45  1  0  0  0  0
 23 46  1  0  0  0  0
 24 25  1  0  0  0  0
 24 47  1  0  0  0  0
 24 48  1  0  0  0  0
 25 26  1  0  0  0  0
 26 27  1  0  0  0  0
 26 31  2  0  0  0  0
 27 28  2  0  0  0  0
 28 29  1  0  0  0  0
 28 49  1  0  0  0  0
 29 30  2  0  0  0  0
 29 32  1  0  0  0  0
 30 31  1  0  0  0  0
 30 50  1  0  0  0  0
 31 51  1  0  0  0  0
M  END
$$$$
