
 OpenBabel07202414113D

 55 58  0  0  0  0  0  0  0  0999 V2000
    2.8028    7.6226    0.5322 C   0  0  0  0  0  0  0  0  0  0  0  0
    3.7297    6.6625    0.3974 C   0  0  0  0  0  0  0  0  0  0  0  0
    3.7422    5.8056   -0.8150 C   0  0  0  0  0  0  0  0  0  0  0  0
    2.8314    5.8829   -1.6300 O   0  0  0  0  0  0  0  0  0  0  0  0
    4.8724    5.0081   -0.9109 N   0  0  0  0  0  0  0  0  0  0  0  0
    5.1591    4.1298   -1.9885 C   0  0  0  0  0  0  0  0  0  0  0  0
    4.1737    3.6798   -2.8722 C   0  0  0  0  0  0  0  0  0  0  0  0
    4.5129    2.9038   -3.9860 C   0  0  0  0  0  0  0  0  0  0  0  0
    5.8491    2.5707   -4.2312 C   0  0  0  0  0  0  0  0  0  0  0  0
    6.8401    2.9918   -3.3391 C   0  0  0  0  0  0  0  0  0  0  0  0
    8.2199    2.8520   -3.6880 N   0  0  0  0  0  0  0  0  0  0  0  0
    8.8721    1.5323   -3.6043 C   0  0  0  0  0  0  0  0  0  0  0  0
    8.1873    0.4299   -2.8258 C   0  0  0  0  0  0  0  0  0  0  0  0
    7.4780   -0.5613   -3.5298 C   0  0  0  0  0  0  0  0  0  0  0  0
    6.7755   -1.5590   -2.8501 C   0  0  0  0  0  0  0  0  0  0  0  0
    6.7767   -1.5795   -1.4589 C   0  0  0  0  0  0  0  0  0  0  0  0
    5.8410   -2.7557   -0.6221 Cl  0  0  0  0  0  0  0  0  0  0  0  0
    7.5240   -0.6503   -0.7421 C   0  0  0  0  0  0  0  0  0  0  0  0
    8.2345    0.3433   -1.4233 C   0  0  0  0  0  0  0  0  0  0  0  0
    9.1895    1.4290   -0.4770 Cl  0  0  0  0  0  0  0  0  0  0  0  0
    8.7932    3.9412   -4.3904 C   0  0  0  0  0  0  0  0  0  0  0  0
    8.2013    5.0178   -4.5157 O   0  0  0  0  0  0  0  0  0  0  0  0
   10.1254    3.7088   -5.1054 C   0  0  0  0  0  0  0  0  0  0  0  0
   11.1482    4.8322   -5.1848 C   0  0  0  0  0  0  0  0  0  0  0  0
   10.9735    6.0626   -4.5534 C   0  0  0  0  0  0  0  0  0  0  0  0
   11.9265    7.0173   -4.4567 N   0  0  0  0  0  0  0  0  0  0  0  0
   13.0957    6.7774   -5.0828 C   0  0  0  0  0  0  0  0  0  0  0  0
   13.3556    5.6517   -5.8570 C   0  0  0  0  0  0  0  0  0  0  0  0
   14.5477    5.5347   -6.5965 C   0  0  0  0  0  0  0  0  0  0  0  0
   14.7864    4.4122   -7.3839 C   0  0  0  0  0  0  0  0  0  0  0  0
   13.8634    3.3751   -7.3940 C   0  0  0  0  0  0  0  0  0  0  0  0
   12.6829    3.4783   -6.6494 C   0  0  0  0  0  0  0  0  0  0  0  0
   12.3749    4.6341   -5.8910 C   0  0  0  0  0  0  0  0  0  0  0  0
    6.4900    3.7388   -2.2011 C   0  0  0  0  0  0  0  0  0  0  0  0
    2.7579    8.2562    1.4081 H   0  0  0  0  0  0  0  0  0  0  0  0
    2.0546    7.7931   -0.2429 H   0  0  0  0  0  0  0  0  0  0  0  0
    4.4719    6.4993    1.1736 H   0  0  0  0  0  0  0  0  0  0  0  0
    5.6279    5.1826   -0.2622 H   0  0  0  0  0  0  0  0  0  0  0  0
    3.1282    3.9361   -2.7341 H   0  0  0  0  0  0  0  0  0  0  0  0
    3.7303    2.6091   -4.6812 H   0  0  0  0  0  0  0  0  0  0  0  0
    6.0973    2.0413   -5.1434 H   0  0  0  0  0  0  0  0  0  0  0  0
    9.8650    1.6883   -3.1647 H   0  0  0  0  0  0  0  0  0  0  0  0
    9.0640    1.1913   -4.6303 H   0  0  0  0  0  0  0  0  0  0  0  0
    7.4589   -0.5593   -4.6182 H   0  0  0  0  0  0  0  0  0  0  0  0
    6.2191   -2.3067   -3.4104 H   0  0  0  0  0  0  0  0  0  0  0  0
    7.5480   -0.6964    0.3436 H   0  0  0  0  0  0  0  0  0  0  0  0
    9.8524    3.4106   -6.1262 H   0  0  0  0  0  0  0  0  0  0  0  0
   10.6572    2.8788   -4.6390 H   0  0  0  0  0  0  0  0  0  0  0  0
   10.0394    6.3521   -4.0807 H   0  0  0  0  0  0  0  0  0  0  0  0
   13.8453    7.5529   -4.9458 H   0  0  0  0  0  0  0  0  0  0  0  0
   15.2823    6.3378   -6.5894 H   0  0  0  0  0  0  0  0  0  0  0  0
   15.6870    4.3508   -7.9897 H   0  0  0  0  0  0  0  0  0  0  0  0
   14.0512    2.4884   -7.9946 H   0  0  0  0  0  0  0  0  0  0  0  0
   11.9899    2.6428   -6.6984 H   0  0  0  0  0  0  0  0  0  0  0  0
    7.2778    4.0749   -1.5321 H   0  0  0  0  0  0  0  0  0  0  0  0
  1  2  2  0  0  0  0
  1 35  1  0  0  0  0
  1 36  1  0  0  0  0
  2  3  1  0  0  0  0
  2 37  1  0  0  0  0
  3  4  2  0  0  0  0
  3  5  1  0  0  0  0
  5  6  1  0  0  0  0
  5 38  1  0  0  0  0
  6  7  1  0  0  0  0
  6 34  2  0  0  0  0
  7  8  2  0  0  0  0
  7 39  1  0  0  0  0
  8  9  1  0  0  0  0
  8 40  1  0  0  0  0
  9 10  2  0  0  0  0
  9 41  1  0  0  0  0
 10 11  1  0  0  0  0
 10 34  1  0  0  0  0
 11 12  1  0  0  0  0
 11 21  1  0  0  0  0
 12 13  1  0  0  0  0
 12 42  1  0  0  0  0
 12 43  1  0  0  0  0
 13 14  1  0  0  0  0
 13 19  2  0  0  0  0
 14 15  2  0  0  0  0
 14 44  1  0  0  0  0
 15 16  1  0  0  0  0
 15 45  1  0  0  0  0
 16 17  1  0  0  0  0
 16 18  2  0  0  0  0
 18 19  1  0  0  0  0
 18 46  1  0  0  0  0
 19 20  1  0  0  0  0
 21 22  2  0  0  0  0
 21 23  1  0  0  0  0
 23 24  1  0  0  0  0
 23 47  1  0  0  0  0
 23 48  1  0  0  0  0
 24 25  1  0  0  0  0
 24 33  2  0  0  0  0
 25 26  2  0  0  0  0
 25 49  1  0  0  0  0
 26 27  1  0  0  0  0
 27 28  2  0  0  0  0
 27 50  1  0  0  0  0
 28 29  1  0  0  0  0
 28 33  1  0  0  0  0
 29 30  2  0  0  0  0
 29 51  1  0  0  0  0
 30 31  1  0  0  0  0
 30 52  1  0  0  0  0
 31 32  2  0  0  0  0
 31 53  1  0  0  0  0
 32 33  1  0  0  0  0
 32 54  1  0  0  0  0
 34 55  1  0  0  0  0
M  END
$$$$
