
 OpenBabel07202414153D

 53 56  0  0  1  0  0  0  0  0999 V2000
    1.7156    0.7083   -1.3045 C   0  0  0  0  0  0  0  0  0  0  0  0
    2.4200   -0.0062   -0.1476 C   0  0  1  0  0  0  0  0  0  0  0  0
    3.3209   -1.1434   -0.6333 C   0  0  0  0  0  0  0  0  0  0  0  0
    4.0061   -1.0849   -1.8583 C   0  0  0  0  0  0  0  0  0  0  0  0
    4.8675   -2.1099   -2.2540 C   0  0  0  0  0  0  0  0  0  0  0  0
    5.0562   -3.2154   -1.4325 C   0  0  0  0  0  0  0  0  0  0  0  0
    4.3837   -3.2958   -0.2158 C   0  0  0  0  0  0  0  0  0  0  0  0
    3.5219   -2.2683    0.1818 C   0  0  0  0  0  0  0  0  0  0  0  0
    3.1722    0.9128    0.8690 C   0  0  2  0  0  0  0  0  0  0  0  0
    2.3122    2.0143    1.5158 C   0  0  0  0  0  0  0  0  0  0  0  0
    2.1756    3.2965    0.6916 C   0  0  0  0  0  0  0  0  0  0  0  0
    3.4535    3.7551   -0.0178 C   0  0  0  0  0  0  0  0  0  0  0  0
    4.2418    2.6543   -0.5645 N   0  0  0  0  0  0  0  0  0  0  0  0
    5.0437    2.7272   -1.7016 C   0  0  0  0  0  0  0  0  0  0  0  0
    5.6296    1.7398   -2.1534 O   0  0  0  0  0  0  0  0  0  0  0  0
    5.2537    4.0686   -2.3744 C   0  0  0  0  0  0  0  0  0  0  0  0
    4.4009    4.4171   -3.5724 C   0  0  0  0  0  0  0  0  0  0  0  0
    3.3220    3.6352   -3.9759 C   0  0  0  0  0  0  0  0  0  0  0  0
    2.4700    3.9590   -4.9740 N   0  0  0  0  0  0  0  0  0  0  0  0
    2.7383    5.0936   -5.6546 C   0  0  0  0  0  0  0  0  0  0  0  0
    3.8362    5.9160   -5.4174 C   0  0  0  0  0  0  0  0  0  0  0  0
    4.1154    7.0338   -6.2262 C   0  0  0  0  0  0  0  0  0  0  0  0
    5.2323    7.8297   -5.9814 C   0  0  0  0  0  0  0  0  0  0  0  0
    6.0584    7.5418   -4.9035 C   0  0  0  0  0  0  0  0  0  0  0  0
    5.7797    6.4397   -4.0865 C   0  0  0  0  0  0  0  0  0  0  0  0
    4.6792    5.5863   -4.3333 C   0  0  0  0  0  0  0  0  0  0  0  0
    4.4695    1.5371    0.3444 C   0  0  0  0  0  0  0  0  0  0  0  0
    1.2654   -0.0140   -1.9950 H   0  0  0  0  0  0  0  0  0  0  0  0
    2.3974    1.3297   -1.8854 H   0  0  0  0  0  0  0  0  0  0  0  0
    0.9006    1.3387   -0.9448 H   0  0  0  0  0  0  0  0  0  0  0  0
    1.6055   -0.4887    0.4137 H   0  0  0  0  0  0  0  0  0  0  0  0
    3.9110   -0.2244   -2.5165 H   0  0  0  0  0  0  0  0  0  0  0  0
    5.3995   -2.0286   -3.1985 H   0  0  0  0  0  0  0  0  0  0  0  0
    5.7334   -4.0083   -1.7385 H   0  0  0  0  0  0  0  0  0  0  0  0
    4.5362   -4.1573    0.4287 H   0  0  0  0  0  0  0  0  0  0  0  0
    3.0159   -2.3497    1.1405 H   0  0  0  0  0  0  0  0  0  0  0  0
    3.4702    0.2478    1.6947 H   0  0  0  0  0  0  0  0  0  0  0  0
    2.7846    2.2880    2.4690 H   0  0  0  0  0  0  0  0  0  0  0  0
    1.3204    1.6259    1.7771 H   0  0  0  0  0  0  0  0  0  0  0  0
    1.8204    4.1052    1.3438 H   0  0  0  0  0  0  0  0  0  0  0  0
    1.3854    3.1664   -0.0526 H   0  0  0  0  0  0  0  0  0  0  0  0
    4.0987    4.2993    0.6808 H   0  0  0  0  0  0  0  0  0  0  0  0
    3.1735    4.4487   -0.8157 H   0  0  0  0  0  0  0  0  0  0  0  0
    6.3027    4.0462   -2.7017 H   0  0  0  0  0  0  0  0  0  0  0  0
    5.1881    4.8669   -1.6290 H   0  0  0  0  0  0  0  0  0  0  0  0
    3.0933    2.6836   -3.5067 H   0  0  0  0  0  0  0  0  0  0  0  0
    2.0207    5.3276   -6.4374 H   0  0  0  0  0  0  0  0  0  0  0  0
    3.4748    7.2738   -7.0722 H   0  0  0  0  0  0  0  0  0  0  0  0
    5.4606    8.6681   -6.6341 H   0  0  0  0  0  0  0  0  0  0  0  0
    6.9306    8.1588   -4.7031 H   0  0  0  0  0  0  0  0  0  0  0  0
    6.4623    6.2526   -3.2599 H   0  0  0  0  0  0  0  0  0  0  0  0
    5.0288    1.9540    1.1951 H   0  0  0  0  0  0  0  0  0  0  0  0
    5.1349    0.7844   -0.0852 H   0  0  0  0  0  0  0  0  0  0  0  0
  1  2  1  0  0  0  0
  1 28  1  0  0  0  0
  1 29  1  0  0  0  0
  1 30  1  0  0  0  0
  2  3  1  0  0  0  0
  2  9  1  0  0  0  0
  2 31  1  1  0  0  0
  3  4  1  0  0  0  0
  3  8  2  0  0  0  0
  4  5  2  0  0  0  0
  4 32  1  0  0  0  0
  5  6  1  0  0  0  0
  5 33  1  0  0  0  0
  6  7  2  0  0  0  0
  6 34  1  0  0  0  0
  7  8  1  0  0  0  0
  7 35  1  0  0  0  0
  8 36  1  0  0  0  0
  9 10  1  0  0  0  0
  9 27  1  0  0  0  0
  9 37  1  1  0  0  0
 10 11  1  0  0  0  0
 10 38  1  0  0  0  0
 10 39  1  0  0  0  0
 11 12  1  0  0  0  0
 11 40  1  0  0  0  0
 11 41  1  0  0  0  0
 12 13  1  0  0  0  0
 12 42  1  0  0  0  0
 12 43  1  0  0  0  0
 13 14  1  0  0  0  0
 13 27  1  0  0  0  0
 14 15  2  0  0  0  0
 14 16  1  0  0  0  0
 16 17  1  0  0  0  0
 16 44  1  0  0  0  0
 16 45  1  0  0  0  0
 17 18  1  0  0  0  0
 17 26  2  0  0  0  0
 18 19  2  0  0  0  0
 18 46  1  0  0  0  0
 19 20  1  0  0  0  0
 20 21  2  0  0  0  0
 20 47  1  0  0  0  0
 21 22  1  0  0  0  0
 21 26  1  0  0  0  0
 22 23  2  0  0  0  0
 22 48  1  0  0  0  0
 23 24  1  0  0  0  0
 23 49  1  0  0  0  0
 24 25  2  0  0  0  0
 24 50  1  0  0  0  0
 25 26  1  0  0  0  0
 25 51  1  0  0  0  0
 27 52  1  0  0  0  0
 27 53  1  0  0  0  0
M  END
$$$$
