
 OpenBabel07202414163D

 53 55  0  0  0  0  0  0  0  0999 V2000
    4.2737    1.7215    2.2413 C   0  0  0  0  0  0  0  0  0  0  0  0
    4.1192    0.8176    1.0519 C   0  0  0  0  0  0  0  0  0  0  0  0
    4.7541   -0.4307    0.9949 C   0  0  0  0  0  0  0  0  0  0  0  0
    4.6239   -1.3067   -0.1100 C   0  0  0  0  0  0  0  0  0  0  0  0
    3.8223   -0.8301   -1.1715 C   0  0  0  0  0  0  0  0  0  0  0  0
    3.1727    0.4054   -1.1499 C   0  0  0  0  0  0  0  0  0  0  0  0
    3.3228    1.2337   -0.0208 C   0  0  0  0  0  0  0  0  0  0  0  0
    2.4512    0.5490   -2.3768 C   0  0  0  0  0  0  0  0  0  0  0  0
    2.6854   -0.5945   -3.1204 C   0  0  0  0  0  0  0  0  0  0  0  0
    3.5202   -1.4062   -2.3890 N   0  0  0  0  0  0  0  0  0  0  0  0
    2.1884   -0.9814   -4.4661 C   0  0  0  0  0  0  0  0  0  0  0  0
    1.6065    1.7066   -2.7830 C   0  0  0  0  0  0  0  0  0  0  0  0
    5.3737   -2.6219   -0.1387 C   0  0  0  0  0  0  0  0  0  0  0  0
    4.4869   -3.7687   -0.2487 N   0  0  0  0  0  0  0  0  0  0  0  0
    4.9027   -4.9504   -0.8373 C   0  0  0  0  0  0  0  0  0  0  0  0
    5.9959   -5.0960   -1.3725 O   0  0  0  0  0  0  0  0  0  0  0  0
    3.9429   -6.0959   -0.7605 C   0  0  0  0  0  0  0  0  0  0  0  0
    2.5602   -5.8897   -0.7319 C   0  0  0  0  0  0  0  0  0  0  0  0
    1.6851   -6.9777   -0.5974 C   0  0  0  0  0  0  0  0  0  0  0  0
    2.1726   -8.2917   -0.4966 C   0  0  0  0  0  0  0  0  0  0  0  0
    3.5559   -8.4971   -0.5988 C   0  0  0  0  0  0  0  0  0  0  0  0
    4.4357   -7.4059   -0.7307 C   0  0  0  0  0  0  0  0  0  0  0  0
    1.2211   -9.4359   -0.2269 C   0  0  0  0  0  0  0  0  0  0  0  0
    0.6715  -10.0303   -1.4224 N   0  0  0  0  0  0  0  0  0  0  0  0
   -0.2396  -11.0585   -1.3296 C   0  0  0  0  0  0  0  0  0  0  0  0
   -0.6477  -11.5215   -0.2759 O   0  0  0  0  0  0  0  0  0  0  0  0
   -0.6887  -11.5613   -2.6567 C   0  0  0  0  0  0  0  0  0  0  0  0
   -1.5654  -12.5696   -2.7614 C   0  0  0  0  0  0  0  0  0  0  0  0
    4.9285    1.2801    2.9988 H   0  0  0  0  0  0  0  0  0  0  0  0
    3.2983    1.9036    2.7048 H   0  0  0  0  0  0  0  0  0  0  0  0
    4.7090    2.6803    1.9391 H   0  0  0  0  0  0  0  0  0  0  0  0
    5.3817   -0.7283    1.8345 H   0  0  0  0  0  0  0  0  0  0  0  0
    2.8232    2.1984    0.0092 H   0  0  0  0  0  0  0  0  0  0  0  0
    3.8682   -2.3085   -2.6853 H   0  0  0  0  0  0  0  0  0  0  0  0
    1.5387   -0.2042   -4.8836 H   0  0  0  0  0  0  0  0  0  0  0  0
    1.6056   -1.9057   -4.4119 H   0  0  0  0  0  0  0  0  0  0  0  0
    3.0205   -1.1267   -5.1613 H   0  0  0  0  0  0  0  0  0  0  0  0
    1.5866    2.4880   -2.0180 H   0  0  0  0  0  0  0  0  0  0  0  0
    0.5752    1.3820   -2.9556 H   0  0  0  0  0  0  0  0  0  0  0  0
    1.9890    2.1530   -3.7066 H   0  0  0  0  0  0  0  0  0  0  0  0
    5.9505   -2.7580    0.7847 H   0  0  0  0  0  0  0  0  0  0  0  0
    6.0869   -2.6181   -0.9694 H   0  0  0  0  0  0  0  0  0  0  0  0
    3.7292   -3.8130    0.4202 H   0  0  0  0  0  0  0  0  0  0  0  0
    2.1437   -4.8903   -0.8127 H   0  0  0  0  0  0  0  0  0  0  0  0
    0.6145   -6.7921   -0.5465 H   0  0  0  0  0  0  0  0  0  0  0  0
    3.9742   -9.5011   -0.5445 H   0  0  0  0  0  0  0  0  0  0  0  0
    5.5119   -7.5856   -0.7815 H   0  0  0  0  0  0  0  0  0  0  0  0
    0.3857   -9.0817    0.3908 H   0  0  0  0  0  0  0  0  0  0  0  0
    1.7198  -10.2216    0.3524 H   0  0  0  0  0  0  0  0  0  0  0  0
    0.9904   -9.7040   -2.3226 H   0  0  0  0  0  0  0  0  0  0  0  0
   -0.2914  -11.0901   -3.5449 H   0  0  0  0  0  0  0  0  0  0  0  0
   -1.9814  -13.0596   -1.8845 H   0  0  0  0  0  0  0  0  0  0  0  0
   -1.8880  -12.9280   -3.7341 H   0  0  0  0  0  0  0  0  0  0  0  0
  1  2  1  0  0  0  0
  1 29  1  0  0  0  0
  1 30  1  0  0  0  0
  1 31  1  0  0  0  0
  2  3  1  0  0  0  0
  2  7  2  0  0  0  0
  3  4  2  0  0  0  0
  3 32  1  0  0  0  0
  4  5  1  0  0  0  0
  4 13  1  0  0  0  0
  5  6  2  0  0  0  0
  5 10  1  0  0  0  0
  6  7  1  0  0  0  0
  6  8  1  0  0  0  0
  7 33  1  0  0  0  0
  8  9  2  0  0  0  0
  8 12  1  0  0  0  0
  9 10  1  0  0  0  0
  9 11  1  0  0  0  0
 10 34  1  0  0  0  0
 11 35  1  0  0  0  0
 11 36  1  0  0  0  0
 11 37  1  0  0  0  0
 12 38  1  0  0  0  0
 12 39  1  0  0  0  0
 12 40  1  0  0  0  0
 13 14  1  0  0  0  0
 13 41  1  0  0  0  0
 13 42  1  0  0  0  0
 14 15  1  0  0  0  0
 14 43  1  0  0  0  0
 15 16  2  0  0  0  0
 15 17  1  0  0  0  0
 17 18  1  0  0  0  0
 17 22  2  0  0  0  0
 18 19  2  0  0  0  0
 18 44  1  0  0  0  0
 19 20  1  0  0  0  0
 19 45  1  0  0  0  0
 20 21  2  0  0  0  0
 20 23  1  0  0  0  0
 21 22  1  0  0  0  0
 21 46  1  0  0  0  0
 22 47  1  0  0  0  0
 23 24  1  0  0  0  0
 23 48  1  0  0  0  0
 23 49  1  0  0  0  0
 24 25  1  0  0  0  0
 24 50  1  0  0  0  0
 25 26  2  0  0  0  0
 25 27  1  0  0  0  0
 27 28  2  0  0  0  0
 27 51  1  0  0  0  0
 28 52  1  0  0  0  0
 28 53  1  0  0  0  0
M  END
$$$$
