
 OpenBabel07202414143D

 43 46  0  0  1  0  0  0  0  0999 V2000
    1.3461    0.0427    0.1043 C   0  0  0  0  0  0  0  0  0  0  0  0
    2.7407    0.0951    0.5293 N   0  0  0  0  0  0  0  0  0  0  0  0
    3.5610   -1.0888    0.2764 C   0  0  0  0  0  0  0  0  0  0  0  0
    4.6291   -1.1682    1.3538 C   0  0  0  0  0  0  0  0  0  0  0  0
    5.5495    0.0460    1.2268 C   0  0  2  0  0  0  0  0  0  0  0  0
    6.5306    0.1249    2.4037 C   0  0  0  0  0  0  0  0  0  0  0  0
    7.7382    0.0442    2.1746 O   0  0  0  0  0  0  0  0  0  0  0  0
    5.9630    0.2905    3.6550 N   0  0  0  0  0  0  0  0  0  0  0  0
    6.6540    0.3648    4.9055 C   0  0  0  0  0  0  0  0  0  0  0  0
    8.0473    0.2948    5.0000 C   0  0  0  0  0  0  0  0  0  0  0  0
    8.7530    0.2907    6.1568 N   0  0  0  0  0  0  0  0  0  0  0  0
    8.0426    0.3971    7.2939 C   0  0  0  0  0  0  0  0  0  0  0  0
    6.6594    0.5424    7.3462 C   0  0  0  0  0  0  0  0  0  0  0  0
    6.0155    0.7233    8.5832 C   0  0  0  0  0  0  0  0  0  0  0  0
    4.6376    0.8895    8.6481 C   0  0  0  0  0  0  0  0  0  0  0  0
    3.8910    0.8514    7.4757 C   0  0  0  0  0  0  0  0  0  0  0  0
    4.5232    0.6647    6.2379 C   0  0  0  0  0  0  0  0  0  0  0  0
    5.9298    0.5163    6.1293 C   0  0  0  0  0  0  0  0  0  0  0  0
    4.7923    1.3407    0.9670 C   0  0  0  0  0  0  0  0  0  0  0  0
    5.4942    2.5637    0.9979 C   0  0  0  0  0  0  0  0  0  0  0  0
    4.8437    3.7583    0.7121 C   0  0  0  0  0  0  0  0  0  0  0  0
    5.7113    5.2419    0.7556 Cl  0  0  0  0  0  0  0  0  0  0  0  0
    3.4959    3.7534    0.3864 C   0  0  0  0  0  0  0  0  0  0  0  0
    2.7966    2.5424    0.3387 C   0  0  0  0  0  0  0  0  0  0  0  0
    3.4244    1.3117    0.6011 C   0  0  0  0  0  0  0  0  0  0  0  0
    0.9954   -0.9915    0.0139 H   0  0  0  0  0  0  0  0  0  0  0  0
    1.1947    0.5234   -0.8681 H   0  0  0  0  0  0  0  0  0  0  0  0
    0.7080    0.5249    0.8533 H   0  0  0  0  0  0  0  0  0  0  0  0
    4.0013   -1.0451   -0.7283 H   0  0  0  0  0  0  0  0  0  0  0  0
    2.9499   -1.9981    0.3179 H   0  0  0  0  0  0  0  0  0  0  0  0
    5.2095   -2.0933    1.2506 H   0  0  0  0  0  0  0  0  0  0  0  0
    4.1448   -1.2080    2.3375 H   0  0  0  0  0  0  0  0  0  0  0  0
    6.1634   -0.1172    0.3278 H   0  0  0  0  0  0  0  0  0  0  0  0
    4.9548    0.3568    3.6836 H   0  0  0  0  0  0  0  0  0  0  0  0
    8.6927    0.2447    4.1302 H   0  0  0  0  0  0  0  0  0  0  0  0
    8.6449    0.3700    8.1990 H   0  0  0  0  0  0  0  0  0  0  0  0
    6.5885    0.7554    9.5065 H   0  0  0  0  0  0  0  0  0  0  0  0
    4.1489    1.0566    9.6030 H   0  0  0  0  0  0  0  0  0  0  0  0
    2.8112    0.9759    7.5184 H   0  0  0  0  0  0  0  0  0  0  0  0
    3.8842    0.6482    5.3615 H   0  0  0  0  0  0  0  0  0  0  0  0
    6.5574    2.5829    1.2326 H   0  0  0  0  0  0  0  0  0  0  0  0
    2.9809    4.6820    0.1556 H   0  0  0  0  0  0  0  0  0  0  0  0
    1.7470    2.5877    0.0629 H   0  0  0  0  0  0  0  0  0  0  0  0
  1  2  1  0  0  0  0
  1 26  1  0  0  0  0
  1 27  1  0  0  0  0
  1 28  1  0  0  0  0
  2  3  1  0  0  0  0
  2 25  1  0  0  0  0
  3  4  1  0  0  0  0
  3 29  1  0  0  0  0
  3 30  1  0  0  0  0
  4  5  1  0  0  0  0
  4 31  1  0  0  0  0
  4 32  1  0  0  0  0
  5 19  1  0  0  0  0
  5  6  1  0  0  0  0
  5 33  1  6  0  0  0
  6  7  2  0  0  0  0
  6  8  1  0  0  0  0
  8  9  1  0  0  0  0
  8 34  1  0  0  0  0
  9 10  1  0  0  0  0
  9 18  2  0  0  0  0
 10 11  2  0  0  0  0
 10 35  1  0  0  0  0
 11 12  1  0  0  0  0
 12 13  2  0  0  0  0
 12 36  1  0  0  0  0
 13 14  1  0  0  0  0
 13 18  1  0  0  0  0
 14 15  2  0  0  0  0
 14 37  1  0  0  0  0
 15 16  1  0  0  0  0
 15 38  1  0  0  0  0
 16 17  2  0  0  0  0
 16 39  1  0  0  0  0
 17 18  1  0  0  0  0
 17 40  1  0  0  0  0
 19 20  1  0  0  0  0
 19 25  2  0  0  0  0
 20 21  2  0  0  0  0
 20 41  1  0  0  0  0
 21 22  1  0  0  0  0
 21 23  1  0  0  0  0
 23 24  2  0  0  0  0
 23 42  1  0  0  0  0
 24 25  1  0  0  0  0
 24 43  1  0  0  0  0
M  END
$$$$
