
 OpenBabel07202414203D

 72 77  0  0  1  0  0  0  0  0999 V2000
    1.2459    0.5581   -1.2837 O   0  0  0  0  0  0  0  0  0  0  0  0
    1.6668    1.4973   -0.2962 C   0  0  0  0  0  0  0  0  0  0  0  0
    3.1101    1.1766    0.1319 C   0  0  0  0  0  0  0  0  0  0  0  0
    3.6907    2.0685    1.1660 N   0  0  0  0  0  0  0  0  0  0  0  0
    3.6708    3.4735    0.7046 C   0  0  0  0  0  0  0  0  0  0  0  0
    4.3722    4.4294    1.6701 C   0  0  0  0  0  0  0  0  0  0  0  0
    5.8098    3.9991    1.9554 C   0  0  0  0  0  0  0  0  0  0  0  0
    5.7871    2.5788    2.5030 C   0  0  3  0  0  0  0  0  0  0  0  0
    5.0836    1.6722    1.4615 C   0  0  3  0  0  0  0  0  0  0  0  0
    5.3108    0.2937    2.0904 C   0  0  0  0  0  0  0  0  0  0  0  0
    6.7327    0.3971    2.6543 C   0  0  0  0  0  0  0  0  0  0  0  0
    7.0155    1.8268    2.7888 N   0  0  0  0  0  0  0  0  0  0  0  0
    8.2010    2.2188    3.3939 C   0  0  0  0  0  0  0  0  0  0  0  0
    8.9819    1.4045    3.8851 O   0  0  0  0  0  0  0  0  0  0  0  0
    8.4959    3.7044    3.3901 C   0  0  0  0  0  0  0  0  0  0  0  0
    9.8106    4.2083    4.0537 C   0  0  3  0  0  0  0  0  0  0  0  0
   11.0522    3.6838    3.2734 C   0  0  0  0  0  0  0  0  0  0  0  0
   10.9194    3.0452    2.2321 O   0  0  0  0  0  0  0  0  0  0  0  0
   12.2771    4.0858    3.7977 N   0  0  0  0  0  0  0  0  0  0  0  0
   13.5698    3.8485    3.2456 C   0  0  0  0  0  0  0  0  0  0  0  0
   13.7710    3.0815    2.0966 C   0  0  0  0  0  0  0  0  0  0  0  0
   14.9476    2.9775    1.4339 N   0  0  0  0  0  0  0  0  0  0  0  0
   16.0003    3.6203    1.9727 C   0  0  0  0  0  0  0  0  0  0  0  0
   15.9696    4.2979    3.1881 C   0  0  0  0  0  0  0  0  0  0  0  0
   17.1523    4.8130    3.7491 C   0  0  0  0  0  0  0  0  0  0  0  0
   17.1344    5.4353    4.9931 C   0  0  0  0  0  0  0  0  0  0  0  0
   15.9294    5.5871    5.6657 C   0  0  0  0  0  0  0  0  0  0  0  0
   14.7421    5.1051    5.1012 C   0  0  0  0  0  0  0  0  0  0  0  0
   14.7250    4.4275    3.8535 C   0  0  0  0  0  0  0  0  0  0  0  0
    9.8950    3.8187    5.5451 C   0  0  0  0  0  0  0  0  0  0  0  0
    8.8499    4.5710    6.3495 C   0  0  0  0  0  0  0  0  0  0  0  0
    9.0819    5.9782    6.3174 O   0  0  0  0  0  0  0  0  0  0  0  0
    9.3154    6.5034    5.0770 C   0  0  0  0  0  0  0  0  0  0  0  0
    9.1355    7.8855    4.9761 C   0  0  0  0  0  0  0  0  0  0  0  0
    9.3232    8.5361    3.7588 C   0  0  0  0  0  0  0  0  0  0  0  0
    9.7203    7.8024    2.6457 C   0  0  0  0  0  0  0  0  0  0  0  0
    9.9307    8.5962    1.1348 Cl  0  0  0  0  0  0  0  0  0  0  0  0
    9.9220    6.4232    2.7423 C   0  0  0  0  0  0  0  0  0  0  0  0
    9.7181    5.7487    3.9649 C   0  0  0  0  0  0  0  0  0  0  0  0
    0.3500    0.8201   -1.5579 H   0  0  0  0  0  0  0  0  0  0  0  0
    0.9837    1.4353    0.5568 H   0  0  0  0  0  0  0  0  0  0  0  0
    1.5905    2.4915   -0.7456 H   0  0  0  0  0  0  0  0  0  0  0  0
    3.7424    1.1689   -0.7668 H   0  0  0  0  0  0  0  0  0  0  0  0
    3.1077    0.1444    0.5028 H   0  0  0  0  0  0  0  0  0  0  0  0
    2.6372    3.8232    0.6125 H   0  0  0  0  0  0  0  0  0  0  0  0
    4.1416    3.5609   -0.2834 H   0  0  0  0  0  0  0  0  0  0  0  0
    3.8109    4.4713    2.6136 H   0  0  0  0  0  0  0  0  0  0  0  0
    4.3676    5.4438    1.2560 H   0  0  0  0  0  0  0  0  0  0  0  0
    6.2142    4.7170    2.6690 H   0  0  0  0  0  0  0  0  0  0  0  0
    6.4166    4.0575    1.0447 H   0  0  0  0  0  0  0  0  0  0  0  0
    5.2192    2.5785    3.4476 H   0  0  0  0  0  0  0  0  0  0  0  0
    5.6696    1.7008    0.5221 H   0  0  0  0  0  0  0  0  0  0  0  0
    5.2250   -0.5296    1.3699 H   0  0  0  0  0  0  0  0  0  0  0  0
    4.5943    0.1071    2.9000 H   0  0  0  0  0  0  0  0  0  0  0  0
    7.4753   -0.0410    1.9802 H   0  0  0  0  0  0  0  0  0  0  0  0
    6.8087   -0.0949    3.6301 H   0  0  0  0  0  0  0  0  0  0  0  0
    7.6572    4.1829    3.8975 H   0  0  0  0  0  0  0  0  0  0  0  0
    8.4880    4.0107    2.3358 H   0  0  0  0  0  0  0  0  0  0  0  0
   12.2403    4.7611    4.5475 H   0  0  0  0  0  0  0  0  0  0  0  0
   12.9801    2.4979    1.6390 H   0  0  0  0  0  0  0  0  0  0  0  0
   16.9127    3.5521    1.3851 H   0  0  0  0  0  0  0  0  0  0  0  0
   18.1043    4.6965    3.2339 H   0  0  0  0  0  0  0  0  0  0  0  0
   18.0608    5.7865    5.4411 H   0  0  0  0  0  0  0  0  0  0  0  0
   15.9113    6.0662    6.6417 H   0  0  0  0  0  0  0  0  0  0  0  0
   13.8364    5.2313    5.6865 H   0  0  0  0  0  0  0  0  0  0  0  0
   10.8767    4.0772    5.9605 H   0  0  0  0  0  0  0  0  0  0  0  0
    9.7827    2.7418    5.6936 H   0  0  0  0  0  0  0  0  0  0  0  0
    8.9049    4.2611    7.3979 H   0  0  0  0  0  0  0  0  0  0  0  0
    7.8252    4.3659    6.0205 H   0  0  0  0  0  0  0  0  0  0  0  0
    8.8214    8.4547    5.8488 H   0  0  0  0  0  0  0  0  0  0  0  0
    9.1494    9.6064    3.6840 H   0  0  0  0  0  0  0  0  0  0  0  0
   10.2143    5.8735    1.8480 H   0  0  0  0  0  0  0  0  0  0  0  0
  1  2  1  0  0  0  0
  1 40  1  0  0  0  0
  2  3  1  0  0  0  0
  2 41  1  0  0  0  0
  2 42  1  0  0  0  0
  3  4  1  0  0  0  0
  3 43  1  0  0  0  0
  3 44  1  0  0  0  0
  4  5  1  0  0  0  0
  4  9  1  0  0  0  0
  5  6  1  0  0  0  0
  5 45  1  0  0  0  0
  5 46  1  0  0  0  0
  6  7  1  0  0  0  0
  6 47  1  0  0  0  0
  6 48  1  0  0  0  0
  7  8  1  0  0  0  0
  7 49  1  0  0  0  0
  7 50  1  0  0  0  0
  8  9  1  0  0  0  0
  8 12  1  0  0  0  0
  8 51  1  0  0  0  0
  9 10  1  0  0  0  0
  9 52  1  0  0  0  0
 10 11  1  0  0  0  0
 10 53  1  0  0  0  0
 10 54  1  0  0  0  0
 11 12  1  0  0  0  0
 11 55  1  0  0  0  0
 11 56  1  0  0  0  0
 12 13  1  0  0  0  0
 13 14  2  0  0  0  0
 13 15  1  0  0  0  0
 15 16  1  0  0  0  0
 15 57  1  0  0  0  0
 15 58  1  0  0  0  0
 16 17  1  0  0  0  0
 16 30  1  0  0  0  0
 16 39  1  0  0  0  0
 17 18  2  0  0  0  0
 17 19  1  0  0  0  0
 19 20  1  0  0  0  0
 19 59  1  0  0  0  0
 20 21  1  0  0  0  0
 20 29  2  0  0  0  0
 21 22  2  0  0  0  0
 21 60  1  0  0  0  0
 22 23  1  0  0  0  0
 23 24  2  0  0  0  0
 23 61  1  0  0  0  0
 24 25  1  0  0  0  0
 24 29  1  0  0  0  0
 25 26  2  0  0  0  0
 25 62  1  0  0  0  0
 26 27  1  0  0  0  0
 26 63  1  0  0  0  0
 27 28  2  0  0  0  0
 27 64  1  0  0  0  0
 28 29  1  0  0  0  0
 28 65  1  0  0  0  0
 30 31  1  0  0  0  0
 30 66  1  0  0  0  0
 30 67  1  0  0  0  0
 31 32  1  0  0  0  0
 31 68  1  0  0  0  0
 31 69  1  0  0  0  0
 32 33  1  0  0  0  0
 33 34  1  0  0  0  0
 33 39  2  0  0  0  0
 34 35  2  0  0  0  0
 34 70  1  0  0  0  0
 35 36  1  0  0  0  0
 35 71  1  0  0  0  0
 36 37  1  0  0  0  0
 36 38  2  0  0  0  0
 38 39  1  0  0  0  0
 38 72  1  0  0  0  0
M  END
$$$$
