
 OpenBabel07202414133D

 43 46  0  0  1  0  0  0  0  0999 V2000
    1.0754    0.0802    0.0296 C   0  0  0  0  0  0  0  0  0  0  0  0
    2.5385    0.1410    0.0555 N   0  0  0  0  0  0  0  0  0  0  0  0
    3.1060   -1.0744    0.6520 C   0  0  0  0  0  0  0  0  0  0  0  0
    4.6168   -1.1060    0.4382 C   0  0  3  0  0  0  0  0  0  0  0  0
    4.9565   -1.5356   -0.9895 C   0  0  0  0  0  0  0  0  0  0  0  0
    5.1441   -2.7541   -1.1710 O   0  0  0  0  0  0  0  0  0  0  0  0
    4.9221   -0.8217   -2.1332 N   0  0  0  0  0  0  0  0  0  0  0  0
    4.9586    0.5050   -2.6257 C   0  0  0  0  0  0  0  0  0  0  0  0
    5.5006    1.5840   -1.9660 C   0  0  0  0  0  0  0  0  0  0  0  0
    5.9423    2.7279   -2.5546 N   0  0  0  0  0  0  0  0  0  0  0  0
    5.7364    2.8015   -3.8720 C   0  0  0  0  0  0  0  0  0  0  0  0
    4.8577    1.9746   -4.5620 C   0  0  0  0  0  0  0  0  0  0  0  0
    4.3112    2.3343   -5.7983 C   0  0  0  0  0  0  0  0  0  0  0  0
    3.4741    1.4464   -6.4732 C   0  0  0  0  0  0  0  0  0  0  0  0
    3.2914    0.1560   -5.9701 C   0  0  0  0  0  0  0  0  0  0  0  0
    3.8365   -0.1986   -4.7480 C   0  0  0  0  0  0  0  0  0  0  0  0
    4.5430    0.7430   -3.9701 C   0  0  0  0  0  0  0  0  0  0  0  0
    5.2742    0.1491    0.9292 C   0  0  0  0  0  0  0  0  0  0  0  0
    6.6681    0.1588    1.1268 C   0  0  0  0  0  0  0  0  0  0  0  0
    7.3167    1.3628    1.3791 C   0  0  0  0  0  0  0  0  0  0  0  0
    9.0341    1.3987    1.4535 Cl  0  0  0  0  0  0  0  0  0  0  0  0
    6.5837    2.5448    1.4861 C   0  0  0  0  0  0  0  0  0  0  0  0
    5.1823    2.5243    1.3706 C   0  0  0  0  0  0  0  0  0  0  0  0
    4.5096    1.3336    1.0648 C   0  0  0  0  0  0  0  0  0  0  0  0
    3.0165    1.3487    0.7487 C   0  0  0  0  0  0  0  0  0  0  0  0
    0.7321   -0.8334   -0.4722 H   0  0  0  0  0  0  0  0  0  0  0  0
    0.6697    0.9176   -0.5461 H   0  0  0  0  0  0  0  0  0  0  0  0
    0.6409    0.0975    1.0356 H   0  0  0  0  0  0  0  0  0  0  0  0
    2.6556   -1.9686    0.2064 H   0  0  0  0  0  0  0  0  0  0  0  0
    2.8696   -1.1237    1.7266 H   0  0  0  0  0  0  0  0  0  0  0  0
    4.9955   -1.9166    1.0765 H   0  0  0  0  0  0  0  0  0  0  0  0
    5.0291   -1.4884   -2.8877 H   0  0  0  0  0  0  0  0  0  0  0  0
    5.7254    1.6105   -0.9270 H   0  0  0  0  0  0  0  0  0  0  0  0
    6.4029    3.4758   -4.3981 H   0  0  0  0  0  0  0  0  0  0  0  0
    4.4414    3.3400   -6.1855 H   0  0  0  0  0  0  0  0  0  0  0  0
    2.9474    1.7599   -7.3647 H   0  0  0  0  0  0  0  0  0  0  0  0
    2.6842   -0.5593   -6.5145 H   0  0  0  0  0  0  0  0  0  0  0  0
    3.6511   -1.1991   -4.3750 H   0  0  0  0  0  0  0  0  0  0  0  0
    7.2483   -0.7558    0.9976 H   0  0  0  0  0  0  0  0  0  0  0  0
    7.1005    3.4958    1.5935 H   0  0  0  0  0  0  0  0  0  0  0  0
    4.6404    3.4684    1.3911 H   0  0  0  0  0  0  0  0  0  0  0  0
    2.8298    2.1976    0.0819 H   0  0  0  0  0  0  0  0  0  0  0  0
    2.4734    1.5147    1.6867 H   0  0  0  0  0  0  0  0  0  0  0  0
  1  2  1  0  0  0  0
  1 26  1  0  0  0  0
  1 27  1  0  0  0  0
  1 28  1  0  0  0  0
  2  3  1  0  0  0  0
  2 25  1  0  0  0  0
  3  4  1  0  0  0  0
  3 29  1  0  0  0  0
  3 30  1  0  0  0  0
  4  5  1  0  0  0  0
  4 18  1  0  0  0  0
  4 31  1  0  0  0  0
  5  6  2  0  0  0  0
  5  7  1  0  0  0  0
  7  8  1  0  0  0  0
  7 32  1  0  0  0  0
  8  9  1  0  0  0  0
  8 17  2  0  0  0  0
  9 10  2  0  0  0  0
  9 33  1  0  0  0  0
 10 11  1  0  0  0  0
 11 12  2  0  0  0  0
 11 34  1  0  0  0  0
 12 13  1  0  0  0  0
 12 17  1  0  0  0  0
 13 14  2  0  0  0  0
 13 35  1  0  0  0  0
 14 15  1  0  0  0  0
 14 36  1  0  0  0  0
 15 16  2  0  0  0  0
 15 37  1  0  0  0  0
 16 17  1  0  0  0  0
 16 38  1  0  0  0  0
 18 19  1  0  0  0  0
 18 24  2  0  0  0  0
 19 20  2  0  0  0  0
 19 39  1  0  0  0  0
 20 21  1  0  0  0  0
 20 22  1  0  0  0  0
 22 23  2  0  0  0  0
 22 40  1  0  0  0  0
 23 24  1  0  0  0  0
 23 41  1  0  0  0  0
 24 25  1  0  0  0  0
 25 42  1  0  0  0  0
 25 43  1  0  0  0  0
M  END
$$$$
