
 OpenBabel07202414183D

 50 53  0  0  0  0  0  0  0  0999 V2000
    0.9643   -0.9385    6.1295 F   0  0  0  0  0  0  0  0  0  0  0  0
    1.1826   -0.2079    4.9976 C   0  0  0  0  0  0  0  0  0  0  0  0
    1.4450   -1.1192    4.0189 F   0  0  0  0  0  0  0  0  0  0  0  0
   -0.0201    0.3464    4.6805 F   0  0  0  0  0  0  0  0  0  0  0  0
    2.2804    0.8249    5.1433 C   0  0  0  0  0  0  0  0  0  0  0  0
    2.9062    1.0049    6.3844 C   0  0  0  0  0  0  0  0  0  0  0  0
    3.9205    1.9535    6.5185 C   0  0  0  0  0  0  0  0  0  0  0  0
    4.3081    2.7267    5.4245 C   0  0  0  0  0  0  0  0  0  0  0  0
    3.6977    2.5861    4.1677 C   0  0  0  0  0  0  0  0  0  0  0  0
    4.1956    3.3802    2.9682 C   0  0  0  0  0  0  0  0  0  0  0  0
    4.3527    4.8122    3.2574 N   0  0  0  0  0  0  0  0  0  0  0  0
    3.1061    5.5953    3.1961 C   0  0  0  0  0  0  0  0  0  0  0  0
    2.6357    6.0834    1.7899 C   0  0  0  0  0  0  0  0  0  0  0  0
    3.7257    6.6277    0.9676 N   0  0  0  0  0  0  0  0  0  0  0  0
    3.5840    7.4683   -0.1362 C   0  0  0  0  0  0  0  0  0  0  0  0
    4.5145    8.1490   -0.5668 O   0  0  0  0  0  0  0  0  0  0  0  0
    2.3483    7.3522   -0.9673 C   0  0  0  0  0  0  0  0  0  0  0  0
    2.6132    6.7674   -2.1483 C   0  0  0  0  0  0  0  0  0  0  0  0
    1.5084    6.4293   -3.0691 C   0  0  0  0  0  0  0  0  0  0  0  0
    1.5846    5.4937   -3.8399 O   0  0  0  0  0  0  0  0  0  0  0  0
    0.4190    7.2546   -2.9760 N   0  0  0  0  0  0  0  0  0  0  0  0
    0.4829    8.4102   -2.2052 C   0  0  0  0  0  0  0  0  0  0  0  0
   -0.0819    9.5943   -2.6745 C   0  0  0  0  0  0  0  0  0  0  0  0
    0.1002   10.7608   -1.9359 C   0  0  0  0  0  0  0  0  0  0  0  0
    0.7093   10.7000   -0.6786 C   0  0  0  0  0  0  0  0  0  0  0  0
    1.2889    9.5120   -0.2255 C   0  0  0  0  0  0  0  0  0  0  0  0
    1.2944    8.3946   -1.0539 C   0  0  0  0  0  0  0  0  0  0  0  0
    5.0004    5.9146    1.0505 C   0  0  0  0  0  0  0  0  0  0  0  0
    5.3997    5.4750    2.4665 C   0  0  0  0  0  0  0  0  0  0  0  0
    2.6794    1.6139    4.0441 C   0  0  0  0  0  0  0  0  0  0  0  0
    2.6203    0.4047    7.2448 H   0  0  0  0  0  0  0  0  0  0  0  0
    4.4146    2.0832    7.4785 H   0  0  0  0  0  0  0  0  0  0  0  0
    5.1160    3.4456    5.5496 H   0  0  0  0  0  0  0  0  0  0  0  0
    3.5627    3.2152    2.0883 H   0  0  0  0  0  0  0  0  0  0  0  0
    5.1718    2.9345    2.7310 H   0  0  0  0  0  0  0  0  0  0  0  0
    3.2858    6.4880    3.8116 H   0  0  0  0  0  0  0  0  0  0  0  0
    2.2884    5.0658    3.7003 H   0  0  0  0  0  0  0  0  0  0  0  0
    1.8950    6.8799    1.9312 H   0  0  0  0  0  0  0  0  0  0  0  0
    2.1557    5.2672    1.2423 H   0  0  0  0  0  0  0  0  0  0  0  0
    3.6207    6.5638   -2.5048 H   0  0  0  0  0  0  0  0  0  0  0  0
   -0.4134    6.9942   -3.4840 H   0  0  0  0  0  0  0  0  0  0  0  0
   -0.5082    9.6510   -3.6747 H   0  0  0  0  0  0  0  0  0  0  0  0
   -0.1973   11.7221   -2.3492 H   0  0  0  0  0  0  0  0  0  0  0  0
    0.8150   11.6059   -0.0869 H   0  0  0  0  0  0  0  0  0  0  0  0
    1.8348    9.5104    0.7141 H   0  0  0  0  0  0  0  0  0  0  0  0
    5.8004    6.5372    0.6354 H   0  0  0  0  0  0  0  0  0  0  0  0
    4.9095    5.0364    0.3993 H   0  0  0  0  0  0  0  0  0  0  0  0
    5.7041    6.3702    3.0236 H   0  0  0  0  0  0  0  0  0  0  0  0
    6.3017    4.8523    2.4125 H   0  0  0  0  0  0  0  0  0  0  0  0
    2.2084    1.4564    3.0791 H   0  0  0  0  0  0  0  0  0  0  0  0
  1  2  1  0  0  0  0
  2  3  1  0  0  0  0
  2  4  1  0  0  0  0
  2  5  1  0  0  0  0
  5  6  1  0  0  0  0
  5 30  2  0  0  0  0
  6  7  2  0  0  0  0
  6 31  1  0  0  0  0
  7  8  1  0  0  0  0
  7 32  1  0  0  0  0
  8  9  2  0  0  0  0
  8 33  1  0  0  0  0
  9 10  1  0  0  0  0
  9 30  1  0  0  0  0
 10 11  1  0  0  0  0
 10 34  1  0  0  0  0
 10 35  1  0  0  0  0
 11 12  1  0  0  0  0
 11 29  1  0  0  0  0
 12 13  1  0  0  0  0
 12 36  1  0  0  0  0
 12 37  1  0  0  0  0
 13 14  1  0  0  0  0
 13 38  1  0  0  0  0
 13 39  1  0  0  0  0
 14 15  1  0  0  0  0
 14 28  1  0  0  0  0
 15 16  2  0  0  0  0
 15 17  1  0  0  0  0
 17 18  2  0  0  0  0
 17 27  1  0  0  0  0
 18 19  1  0  0  0  0
 18 40  1  0  0  0  0
 19 20  2  0  0  0  0
 19 21  1  0  0  0  0
 21 22  1  0  0  0  0
 21 41  1  0  0  0  0
 22 23  1  0  0  0  0
 22 27  2  0  0  0  0
 23 24  2  0  0  0  0
 23 42  1  0  0  0  0
 24 25  1  0  0  0  0
 24 43  1  0  0  0  0
 25 26  2  0  0  0  0
 25 44  1  0  0  0  0
 26 27  1  0  0  0  0
 26 45  1  0  0  0  0
 28 29  1  0  0  0  0
 28 46  1  0  0  0  0
 28 47  1  0  0  0  0
 29 48  1  0  0  0  0
 29 49  1  0  0  0  0
 30 50  1  0  0  0  0
M  END
$$$$
