
 OpenBabel07202414123D

 71 74  0  0  1  0  0  0  0  0999 V2000
    1.4925   -0.6219   -0.1870 C   0  0  0  0  0  0  0  0  0  0  0  0
    2.9684   -0.1990    0.0274 C   0  0  0  0  0  0  0  0  0  0  0  0
    3.2403   -0.0915    1.5359 C   0  0  0  0  0  0  0  0  0  0  0  0
    3.8244   -1.3394   -0.5691 C   0  0  0  0  0  0  0  0  0  0  0  0
    3.2848    1.1542   -0.6230 C   0  0  0  0  0  0  0  0  0  0  0  0
    2.2879    2.1093   -0.8217 C   0  0  0  0  0  0  0  0  0  0  0  0
    2.5336    3.2818   -1.5446 C   0  0  0  0  0  0  0  0  0  0  0  0
    3.7945    3.5910   -2.0720 C   0  0  0  0  0  0  0  0  0  0  0  0
    3.9804    4.7340   -2.9588 N   0  0  0  0  0  0  0  0  0  0  0  0
    5.1867    4.8053   -3.8364 C   0  0  3  0  0  0  0  0  0  0  0  0
    6.3452    5.5175   -3.0825 C   0  0  0  0  0  0  0  0  0  0  0  0
    6.7270    5.1983   -1.9585 O   0  0  0  0  0  0  0  0  0  0  0  0
    6.9563    6.5502   -3.7805 N   0  0  0  0  0  0  0  0  0  0  0  0
    8.0598    7.3047   -3.1989 C   0  0  0  0  0  0  0  0  0  0  0  0
    9.3567    6.4901   -3.1550 C   0  0  0  0  0  0  0  0  0  0  0  0
   10.5064    7.2013   -2.4839 C   0  0  0  0  0  0  0  0  0  0  0  0
   10.6460    7.1607   -1.0863 C   0  0  0  0  0  0  0  0  0  0  0  0
   11.7545    7.7426   -0.4624 C   0  0  0  0  0  0  0  0  0  0  0  0
   12.7270    8.3815   -1.2285 C   0  0  0  0  0  0  0  0  0  0  0  0
   12.5764    8.4445   -2.6087 C   0  0  0  0  0  0  0  0  0  0  0  0
   13.5133    9.0531   -3.3477 F   0  0  0  0  0  0  0  0  0  0  0  0
   11.4797    7.8648   -3.2408 C   0  0  0  0  0  0  0  0  0  0  0  0
    5.5934    3.5436   -4.6051 C   0  0  0  0  0  0  0  0  0  0  0  0
    4.6654    2.8425   -5.3898 C   0  0  0  0  0  0  0  0  0  0  0  0
    5.0855    1.7915   -6.2102 C   0  0  0  0  0  0  0  0  0  0  0  0
    6.4296    1.4675   -6.2241 C   0  0  0  0  0  0  0  0  0  0  0  0
    7.3581    2.1045   -5.4699 N   0  0  0  0  0  0  0  0  0  0  0  0
    6.9145    3.1043   -4.6788 C   0  0  0  0  0  0  0  0  0  0  0  0
    3.0806    5.8254   -2.8812 C   0  0  0  0  0  0  0  0  0  0  0  0
    2.2256    5.9442   -1.9939 O   0  0  0  0  0  0  0  0  0  0  0  0
    3.2108    7.0130   -3.8773 C   0  0  3  0  0  0  0  0  0  0  0  0
    2.0218    7.9655   -3.7215 C   0  0  0  0  0  0  0  0  0  0  0  0
    2.0646    8.7489   -5.0025 C   0  0  0  0  0  0  0  0  0  0  0  0
    2.4564    7.6747   -5.9899 C   0  0  0  0  0  0  0  0  0  0  0  0
    3.2650    6.7214   -5.2781 O   0  0  0  0  0  0  0  0  0  0  0  0
    4.8234    2.7046   -1.7357 C   0  0  0  0  0  0  0  0  0  0  0  0
    4.5760    1.5102   -1.0319 C   0  0  0  0  0  0  0  0  0  0  0  0
    1.3029   -1.6235    0.2155 H   0  0  0  0  0  0  0  0  0  0  0  0
    1.2379   -0.6405   -1.2542 H   0  0  0  0  0  0  0  0  0  0  0  0
    0.7877    0.0494    0.3152 H   0  0  0  0  0  0  0  0  0  0  0  0
    3.0016   -1.0296    2.0492 H   0  0  0  0  0  0  0  0  0  0  0  0
    2.6366    0.7014    1.9934 H   0  0  0  0  0  0  0  0  0  0  0  0
    4.2926    0.1406    1.7368 H   0  0  0  0  0  0  0  0  0  0  0  0
    3.5412   -2.3085   -0.1413 H   0  0  0  0  0  0  0  0  0  0  0  0
    4.8930   -1.2103   -0.3707 H   0  0  0  0  0  0  0  0  0  0  0  0
    3.6898   -1.4061   -1.6557 H   0  0  0  0  0  0  0  0  0  0  0  0
    1.2775    1.9645   -0.4511 H   0  0  0  0  0  0  0  0  0  0  0  0
    1.6639    3.9093   -1.7057 H   0  0  0  0  0  0  0  0  0  0  0  0
    4.9517    5.4762   -4.6596 H   0  0  0  0  0  0  0  0  0  0  0  0
    6.6680    6.7682   -4.7279 H   0  0  0  0  0  0  0  0  0  0  0  0
    7.7584    7.6204   -2.1935 H   0  0  0  0  0  0  0  0  0  0  0  0
    8.1894    8.2070   -3.8070 H   0  0  0  0  0  0  0  0  0  0  0  0
    9.6441    6.2058   -4.1762 H   0  0  0  0  0  0  0  0  0  0  0  0
    9.1935    5.5398   -2.6320 H   0  0  0  0  0  0  0  0  0  0  0  0
    9.9056    6.6451   -0.4755 H   0  0  0  0  0  0  0  0  0  0  0  0
   11.8669    7.6798    0.6176 H   0  0  0  0  0  0  0  0  0  0  0  0
   13.6044    8.8185   -0.7629 H   0  0  0  0  0  0  0  0  0  0  0  0
   11.4185    7.9113   -4.3235 H   0  0  0  0  0  0  0  0  0  0  0  0
    3.6126    3.1168   -5.3794 H   0  0  0  0  0  0  0  0  0  0  0  0
    4.3804    1.2482   -6.8312 H   0  0  0  0  0  0  0  0  0  0  0  0
    6.8112    0.6773   -6.8662 H   0  0  0  0  0  0  0  0  0  0  0  0
    7.7124    3.5647   -4.0986 H   0  0  0  0  0  0  0  0  0  0  0  0
    4.1310    7.5503   -3.6172 H   0  0  0  0  0  0  0  0  0  0  0  0
    2.0865    8.5868   -2.8239 H   0  0  0  0  0  0  0  0  0  0  0  0
    1.0770    7.4066   -3.6780 H   0  0  0  0  0  0  0  0  0  0  0  0
    2.8437    9.5173   -4.9412 H   0  0  0  0  0  0  0  0  0  0  0  0
    1.1181    9.2368   -5.2506 H   0  0  0  0  0  0  0  0  0  0  0  0
    3.0174    8.0766   -6.8386 H   0  0  0  0  0  0  0  0  0  0  0  0
    1.5767    7.1461   -6.3721 H   0  0  0  0  0  0  0  0  0  0  0  0
    5.8588    2.9030   -1.9890 H   0  0  0  0  0  0  0  0  0  0  0  0
    5.4265    0.8650   -0.8246 H   0  0  0  0  0  0  0  0  0  0  0  0
  1  2  1  0  0  0  0
  1 38  1  0  0  0  0
  1 39  1  0  0  0  0
  1 40  1  0  0  0  0
  2  3  1  0  0  0  0
  2  4  1  0  0  0  0
  2  5  1  0  0  0  0
  3 41  1  0  0  0  0
  3 42  1  0  0  0  0
  3 43  1  0  0  0  0
  4 44  1  0  0  0  0
  4 45  1  0  0  0  0
  4 46  1  0  0  0  0
  5  6  1  0  0  0  0
  5 37  2  0  0  0  0
  6  7  2  0  0  0  0
  6 47  1  0  0  0  0
  7  8  1  0  0  0  0
  7 48  1  0  0  0  0
  8  9  1  0  0  0  0
  8 36  2  0  0  0  0
  9 10  1  0  0  0  0
  9 29  1  0  0  0  0
 10 11  1  0  0  0  0
 10 23  1  0  0  0  0
 10 49  1  0  0  0  0
 11 12  2  0  0  0  0
 11 13  1  0  0  0  0
 13 14  1  0  0  0  0
 13 50  1  0  0  0  0
 14 15  1  0  0  0  0
 14 51  1  0  0  0  0
 14 52  1  0  0  0  0
 15 16  1  0  0  0  0
 15 53  1  0  0  0  0
 15 54  1  0  0  0  0
 16 17  1  0  0  0  0
 16 22  2  0  0  0  0
 17 18  2  0  0  0  0
 17 55  1  0  0  0  0
 18 19  1  0  0  0  0
 18 56  1  0  0  0  0
 19 20  2  0  0  0  0
 19 57  1  0  0  0  0
 20 21  1  0  0  0  0
 20 22  1  0  0  0  0
 22 58  1  0  0  0  0
 23 24  1  0  0  0  0
 23 28  2  0  0  0  0
 24 25  2  0  0  0  0
 24 59  1  0  0  0  0
 25 26  1  0  0  0  0
 25 60  1  0  0  0  0
 26 27  2  0  0  0  0
 26 61  1  0  0  0  0
 27 28  1  0  0  0  0
 28 62  1  0  0  0  0
 29 30  2  0  0  0  0
 29 31  1  0  0  0  0
 31 32  1  0  0  0  0
 31 35  1  0  0  0  0
 31 63  1  0  0  0  0
 32 33  1  0  0  0  0
 32 64  1  0  0  0  0
 32 65  1  0  0  0  0
 33 34  1  0  0  0  0
 33 66  1  0  0  0  0
 33 67  1  0  0  0  0
 34 35  1  0  0  0  0
 34 68  1  0  0  0  0
 34 69  1  0  0  0  0
 36 37  1  0  0  0  0
 36 70  1  0  0  0  0
 37 71  1  0  0  0  0
M  END
$$$$
