
 OpenBabel07202414193D

 43 46  0  0  1  0  0  0  0  0999 V2000
    1.3460   -1.0425    0.3321 O   0  0  0  0  0  0  0  0  0  0  0  0
    2.2787   -0.2463    0.1680 C   0  0  0  0  0  0  0  0  0  0  0  0
    2.7615    0.0513   -1.2427 C   0  0  0  0  0  0  0  0  0  0  0  0
    1.7266    0.6438   -2.1852 C   0  0  0  0  0  0  0  0  0  0  0  0
    0.7056    1.4587   -1.6898 C   0  0  0  0  0  0  0  0  0  0  0  0
   -0.2154    2.0948   -2.4513 N   0  0  0  0  0  0  0  0  0  0  0  0
   -0.1242    1.9051   -3.7820 C   0  0  0  0  0  0  0  0  0  0  0  0
    0.8444    1.1261   -4.4086 C   0  0  0  0  0  0  0  0  0  0  0  0
    0.8791    0.9902   -5.8090 C   0  0  0  0  0  0  0  0  0  0  0  0
    1.8550    0.2106   -6.4229 C   0  0  0  0  0  0  0  0  0  0  0  0
    2.8024   -0.4412   -5.6459 C   0  0  0  0  0  0  0  0  0  0  0  0
    2.7779   -0.3097   -4.2538 C   0  0  0  0  0  0  0  0  0  0  0  0
    1.8019    0.4755   -3.5940 C   0  0  0  0  0  0  0  0  0  0  0  0
    2.8995    0.3424    1.2477 N   0  0  0  0  0  0  0  0  0  0  0  0
    2.5125   -0.0488    2.5885 C   0  0  0  0  0  0  0  0  0  0  0  0
    2.9428    1.1203    3.4460 C   0  0  0  0  0  0  0  0  0  0  0  0
    4.2572    1.5434    2.7977 C   0  0  0  0  0  0  0  0  0  0  0  0
    4.0501    1.2663    1.2918 C   0  0  2  0  0  0  0  0  0  0  0  0
    3.8904    2.5717    0.5315 C   0  0  0  0  0  0  0  0  0  0  0  0
    5.0269    3.2196    0.0452 C   0  0  0  0  0  0  0  0  0  0  0  0
    4.8712    4.3873   -0.7025 C   0  0  0  0  0  0  0  0  0  0  0  0
    3.5939    4.8796   -0.9330 C   0  0  0  0  0  0  0  0  0  0  0  0
    2.5223    4.1969   -0.3866 C   0  0  0  0  0  0  0  0  0  0  0  0
    2.6449    3.0677    0.3467 N   0  0  0  0  0  0  0  0  0  0  0  0
    3.0759   -0.9312   -1.6139 H   0  0  0  0  0  0  0  0  0  0  0  0
    3.6522    0.6807   -1.2543 H   0  0  0  0  0  0  0  0  0  0  0  0
    0.5924    1.6480   -0.6246 H   0  0  0  0  0  0  0  0  0  0  0  0
   -0.8860    2.4280   -4.3580 H   0  0  0  0  0  0  0  0  0  0  0  0
    0.1410    1.4954   -6.4288 H   0  0  0  0  0  0  0  0  0  0  0  0
    1.8742    0.1117   -7.5050 H   0  0  0  0  0  0  0  0  0  0  0  0
    3.5615   -1.0606   -6.1165 H   0  0  0  0  0  0  0  0  0  0  0  0
    3.5379   -0.8436   -3.6913 H   0  0  0  0  0  0  0  0  0  0  0  0
    3.0843   -0.9506    2.8429 H   0  0  0  0  0  0  0  0  0  0  0  0
    1.4456   -0.2749    2.6691 H   0  0  0  0  0  0  0  0  0  0  0  0
    3.0527    0.8539    4.5006 H   0  0  0  0  0  0  0  0  0  0  0  0
    2.2074    1.9302    3.3674 H   0  0  0  0  0  0  0  0  0  0  0  0
    5.0690    0.9123    3.1818 H   0  0  0  0  0  0  0  0  0  0  0  0
    4.5059    2.5829    3.0357 H   0  0  0  0  0  0  0  0  0  0  0  0
    4.9138    0.7205    0.8875 H   0  0  0  0  0  0  0  0  0  0  0  0
    6.0211    2.8248    0.2246 H   0  0  0  0  0  0  0  0  0  0  0  0
    5.7397    4.9012   -1.1053 H   0  0  0  0  0  0  0  0  0  0  0  0
    3.4350    5.7714   -1.5290 H   0  0  0  0  0  0  0  0  0  0  0  0
    1.5012    4.5369   -0.5432 H   0  0  0  0  0  0  0  0  0  0  0  0
  1  2  2  0  0  0  0
  2  3  1  0  0  0  0
  2 14  1  0  0  0  0
  3  4  1  0  0  0  0
  3 25  1  0  0  0  0
  3 26  1  0  0  0  0
  4  5  1  0  0  0  0
  4 13  2  0  0  0  0
  5  6  2  0  0  0  0
  5 27  1  0  0  0  0
  6  7  1  0  0  0  0
  7  8  2  0  0  0  0
  7 28  1  0  0  0  0
  8  9  1  0  0  0  0
  8 13  1  0  0  0  0
  9 10  2  0  0  0  0
  9 29  1  0  0  0  0
 10 11  1  0  0  0  0
 10 30  1  0  0  0  0
 11 12  2  0  0  0  0
 11 31  1  0  0  0  0
 12 13  1  0  0  0  0
 12 32  1  0  0  0  0
 14 15  1  0  0  0  0
 14 18  1  0  0  0  0
 15 16  1  0  0  0  0
 15 33  1  0  0  0  0
 15 34  1  0  0  0  0
 16 17  1  0  0  0  0
 16 35  1  0  0  0  0
 16 36  1  0  0  0  0
 17 18  1  0  0  0  0
 17 37  1  0  0  0  0
 17 38  1  0  0  0  0
 18 19  1  0  0  0  0
 18 39  1  6  0  0  0
 19 20  1  0  0  0  0
 19 24  2  0  0  0  0
 20 21  2  0  0  0  0
 20 40  1  0  0  0  0
 21 22  1  0  0  0  0
 21 41  1  0  0  0  0
 22 23  2  0  0  0  0
 22 42  1  0  0  0  0
 23 24  1  0  0  0  0
 23 43  1  0  0  0  0
M  END
$$$$
