
 OpenBabel07202414193D

 41 44  0  0  0  0  0  0  0  0999 V2000
    0.9861    0.2721   -0.2776 O   0  0  0  0  0  0  0  0  0  0  0  0
    2.2041    0.1035   -0.1637 C   0  0  0  0  0  0  0  0  0  0  0  0
    2.8314    0.4627    1.1805 C   0  0  0  0  0  0  0  0  0  0  0  0
    2.8584   -0.6525    2.2103 C   0  0  0  0  0  0  0  0  0  0  0  0
    2.2119   -1.8701    1.9776 C   0  0  0  0  0  0  0  0  0  0  0  0
    2.1823   -2.9036    2.8455 N   0  0  0  0  0  0  0  0  0  0  0  0
    2.8005   -2.7166    4.0285 C   0  0  0  0  0  0  0  0  0  0  0  0
    3.4657   -1.5500    4.3968 C   0  0  0  0  0  0  0  0  0  0  0  0
    4.0798   -1.4283    5.6560 C   0  0  0  0  0  0  0  0  0  0  0  0
    4.7402   -0.2558    6.0129 C   0  0  0  0  0  0  0  0  0  0  0  0
    4.7902    0.8040    5.1168 C   0  0  0  0  0  0  0  0  0  0  0  0
    4.1781    0.6935    3.8628 C   0  0  0  0  0  0  0  0  0  0  0  0
    3.5023   -0.4850    3.4671 C   0  0  0  0  0  0  0  0  0  0  0  0
    3.0267   -0.4589   -1.1533 N   0  0  0  0  0  0  0  0  0  0  0  0
    4.4391   -0.8009   -0.9219 C   0  0  0  0  0  0  0  0  0  0  0  0
    4.7410   -2.2267   -1.3389 C   0  0  0  0  0  0  0  0  0  0  0  0
    4.4944   -2.3870   -2.8263 C   0  0  0  0  0  0  0  0  0  0  0  0
    3.2271   -1.7100   -3.2798 C   0  0  0  0  0  0  0  0  0  0  0  0
    2.7559   -2.0230   -4.5688 C   0  0  0  0  0  0  0  0  0  0  0  0
    1.6066   -1.4234   -5.0731 C   0  0  0  0  0  0  0  0  0  0  0  0
    0.9250   -0.4958   -4.2978 C   0  0  0  0  0  0  0  0  0  0  0  0
    1.3845   -0.1792   -3.0132 C   0  0  0  0  0  0  0  0  0  0  0  0
    2.5338   -0.7802   -2.4750 C   0  0  0  0  0  0  0  0  0  0  0  0
    2.2301    1.2855    1.5911 H   0  0  0  0  0  0  0  0  0  0  0  0
    3.8282    0.8847    1.0178 H   0  0  0  0  0  0  0  0  0  0  0  0
    1.6707   -2.0729    1.0561 H   0  0  0  0  0  0  0  0  0  0  0  0
    2.7377   -3.5669    4.7030 H   0  0  0  0  0  0  0  0  0  0  0  0
    4.0424   -2.2493    6.3695 H   0  0  0  0  0  0  0  0  0  0  0  0
    5.2100   -0.1699    6.9895 H   0  0  0  0  0  0  0  0  0  0  0  0
    5.3016    1.7234    5.3918 H   0  0  0  0  0  0  0  0  0  0  0  0
    4.2347    1.5537    3.2010 H   0  0  0  0  0  0  0  0  0  0  0  0
    4.7222   -0.6980    0.1250 H   0  0  0  0  0  0  0  0  0  0  0  0
    5.0461   -0.0820   -1.4875 H   0  0  0  0  0  0  0  0  0  0  0  0
    4.1027   -2.9174   -0.7745 H   0  0  0  0  0  0  0  0  0  0  0  0
    5.7813   -2.4803   -1.1071 H   0  0  0  0  0  0  0  0  0  0  0  0
    4.4555   -3.4573   -3.0630 H   0  0  0  0  0  0  0  0  0  0  0  0
    5.3321   -1.9530   -3.3862 H   0  0  0  0  0  0  0  0  0  0  0  0
    3.2859   -2.7481   -5.1850 H   0  0  0  0  0  0  0  0  0  0  0  0
    1.2481   -1.6726   -6.0697 H   0  0  0  0  0  0  0  0  0  0  0  0
    0.0360   -0.0082   -4.6860 H   0  0  0  0  0  0  0  0  0  0  0  0
    0.8277    0.5776   -2.4700 H   0  0  0  0  0  0  0  0  0  0  0  0
  1  2  2  0  0  0  0
  2  3  1  0  0  0  0
  2 14  1  0  0  0  0
  3  4  1  0  0  0  0
  3 24  1  0  0  0  0
  3 25  1  0  0  0  0
  4  5  1  0  0  0  0
  4 13  2  0  0  0  0
  5  6  2  0  0  0  0
  5 26  1  0  0  0  0
  6  7  1  0  0  0  0
  7  8  2  0  0  0  0
  7 27  1  0  0  0  0
  8  9  1  0  0  0  0
  8 13  1  0  0  0  0
  9 10  2  0  0  0  0
  9 28  1  0  0  0  0
 10 11  1  0  0  0  0
 10 29  1  0  0  0  0
 11 12  2  0  0  0  0
 11 30  1  0  0  0  0
 12 13  1  0  0  0  0
 12 31  1  0  0  0  0
 14 15  1  0  0  0  0
 14 23  1  0  0  0  0
 15 16  1  0  0  0  0
 15 32  1  0  0  0  0
 15 33  1  0  0  0  0
 16 17  1  0  0  0  0
 16 34  1  0  0  0  0
 16 35  1  0  0  0  0
 17 18  1  0  0  0  0
 17 36  1  0  0  0  0
 17 37  1  0  0  0  0
 18 19  1  0  0  0  0
 18 23  2  0  0  0  0
 19 20  2  0  0  0  0
 19 38  1  0  0  0  0
 20 21  1  0  0  0  0
 20 39  1  0  0  0  0
 21 22  2  0  0  0  0
 21 40  1  0  0  0  0
 22 23  1  0  0  0  0
 22 41  1  0  0  0  0
M  END
$$$$
