
 OpenBabel07202414163D

 40 42  0  0  0  0  0  0  0  0999 V2000
    0.8918    0.3222   -0.0145 C   0  0  0  0  0  0  0  0  0  0  0  0
    2.3675    0.1787    0.0522 C   0  0  0  0  0  0  0  0  0  0  0  0
    3.2944    1.1998    0.0736 C   0  0  0  0  0  0  0  0  0  0  0  0
    4.6013    0.6298    0.0964 C   0  0  0  0  0  0  0  0  0  0  0  0
    5.8687    1.3762    0.0473 C   0  0  0  0  0  0  0  0  0  0  0  0
    6.9078    0.9181    0.5269 O   0  0  0  0  0  0  0  0  0  0  0  0
    5.8696    2.7593   -0.5799 C   0  0  0  0  0  0  0  0  0  0  0  0
    5.4911    2.6408   -2.3137 Cl  0  0  0  0  0  0  0  0  0  0  0  0
    4.4266   -0.7553    0.1411 C   0  0  0  0  0  0  0  0  0  0  0  0
    5.4554   -1.8366    0.1452 C   0  0  0  0  0  0  0  0  0  0  0  0
    3.0646   -1.0026    0.1294 N   0  0  0  0  0  0  0  0  0  0  0  0
    2.5293   -2.2370   -0.0966 N   0  0  0  0  0  0  0  0  0  0  0  0
    1.5076   -2.7440    0.6738 C   0  0  0  0  0  0  0  0  0  0  0  0
    0.9133   -2.1790    1.5801 O   0  0  0  0  0  0  0  0  0  0  0  0
    1.1160   -4.1856    0.3327 C   0  0  0  0  0  0  0  0  0  0  0  0
    2.1051   -4.9977    0.0824 N   0  0  0  0  0  0  0  0  0  0  0  0
    1.8099   -6.3165   -0.1268 N   0  0  0  0  0  0  0  0  0  0  0  0
    0.5649   -6.8944   -0.0432 C   0  0  0  0  0  0  0  0  0  0  0  0
    0.3956   -8.1042   -0.1631 O   0  0  0  0  0  0  0  0  0  0  0  0
   -0.5624   -5.9787    0.1879 C   0  0  0  0  0  0  0  0  0  0  0  0
   -1.8723   -6.4792    0.2371 C   0  0  0  0  0  0  0  0  0  0  0  0
   -2.9406   -5.6052    0.4292 C   0  0  0  0  0  0  0  0  0  0  0  0
   -2.6992   -4.2383    0.5532 C   0  0  0  0  0  0  0  0  0  0  0  0
   -1.3902   -3.7401    0.5024 C   0  0  0  0  0  0  0  0  0  0  0  0
   -0.3077   -4.6146    0.3412 C   0  0  0  0  0  0  0  0  0  0  0  0
    0.6272    1.3517   -0.2834 H   0  0  0  0  0  0  0  0  0  0  0  0
    0.4374    0.1301    0.9608 H   0  0  0  0  0  0  0  0  0  0  0  0
    0.4545   -0.3385   -0.7661 H   0  0  0  0  0  0  0  0  0  0  0  0
    3.0445    2.2506    0.0466 H   0  0  0  0  0  0  0  0  0  0  0  0
    6.8612    3.2102   -0.4884 H   0  0  0  0  0  0  0  0  0  0  0  0
    5.1428    3.4147   -0.0924 H   0  0  0  0  0  0  0  0  0  0  0  0
    6.4734   -1.4378    0.1659 H   0  0  0  0  0  0  0  0  0  0  0  0
    5.3761   -2.4483   -0.7592 H   0  0  0  0  0  0  0  0  0  0  0  0
    5.3393   -2.4811    1.0216 H   0  0  0  0  0  0  0  0  0  0  0  0
    3.1104   -2.8903   -0.6075 H   0  0  0  0  0  0  0  0  0  0  0  0
    2.5939   -6.9452   -0.2619 H   0  0  0  0  0  0  0  0  0  0  0  0
   -2.0592   -7.5462    0.1297 H   0  0  0  0  0  0  0  0  0  0  0  0
   -3.9575   -5.9903    0.4804 H   0  0  0  0  0  0  0  0  0  0  0  0
   -3.5346   -3.5555    0.7002 H   0  0  0  0  0  0  0  0  0  0  0  0
   -1.2500   -2.6674    0.6038 H   0  0  0  0  0  0  0  0  0  0  0  0
  1  2  1  0  0  0  0
  1 26  1  0  0  0  0
  1 27  1  0  0  0  0
  1 28  1  0  0  0  0
  2  3  2  0  0  0  0
  2 11  1  0  0  0  0
  3  4  1  0  0  0  0
  3 29  1  0  0  0  0
  4  5  1  0  0  0  0
  4  9  2  0  0  0  0
  5  6  2  0  0  0  0
  5  7  1  0  0  0  0
  7  8  1  0  0  0  0
  7 30  1  0  0  0  0
  7 31  1  0  0  0  0
  9 10  1  0  0  0  0
  9 11  1  0  0  0  0
 10 32  1  0  0  0  0
 10 33  1  0  0  0  0
 10 34  1  0  0  0  0
 11 12  1  0  0  0  0
 12 13  1  0  0  0  0
 12 35  1  0  0  0  0
 13 14  2  0  0  0  0
 13 15  1  0  0  0  0
 15 16  2  0  0  0  0
 15 25  1  0  0  0  0
 16 17  1  0  0  0  0
 17 18  1  0  0  0  0
 17 36  1  0  0  0  0
 18 19  2  0  0  0  0
 18 20  1  0  0  0  0
 20 21  1  0  0  0  0
 20 25  2  0  0  0  0
 21 22  2  0  0  0  0
 21 37  1  0  0  0  0
 22 23  1  0  0  0  0
 22 38  1  0  0  0  0
 23 24  2  0  0  0  0
 23 39  1  0  0  0  0
 24 25  1  0  0  0  0
 24 40  1  0  0  0  0
M  END
$$$$
