
 OpenBabel07202414173D

 45 47  0  0  1  0  0  0  0  0999 V2000
    1.0526    0.0921    0.4530 Cl  0  0  0  0  0  0  0  0  0  0  0  0
    2.7870   -0.0586    0.7992 C   0  0  0  0  0  0  0  0  0  0  0  0
    3.3538   -1.3905    0.3299 C   0  0  0  0  0  0  0  0  0  0  0  0
    2.6396   -2.3025   -0.0863 O   0  0  0  0  0  0  0  0  0  0  0  0
    4.7429   -1.5293    0.3930 N   0  0  0  0  0  0  0  0  0  0  0  0
    5.6690   -0.6110    1.0657 C   0  0  0  0  0  0  0  0  0  0  0  0
    6.9360   -0.3235    0.2276 C   0  0  0  0  0  0  0  0  0  0  0  0
    7.5593   -1.5632   -0.3683 N   0  0  0  0  0  0  0  0  0  0  0  0
    8.4854   -2.4938    0.7480 S   0  0  0  0  0  0  0  0  0  0  0  0
    7.9935   -2.2605    2.0874 O   0  0  0  0  0  0  0  0  0  0  0  0
    8.6445   -3.8250    0.2117 O   0  0  0  0  0  0  0  0  0  0  0  0
   10.1109   -1.9077    0.7940 C   0  0  0  0  0  0  0  0  0  0  0  0
   11.0955   -2.4312    1.6885 C   0  0  0  0  0  0  0  0  0  0  0  0
   12.3200   -1.8250    1.5150 C   0  0  0  0  0  0  0  0  0  0  0  0
   12.2801   -0.6417    0.2777 S   0  0  0  0  0  0  0  0  0  0  0  0
   10.6219   -0.9373   -0.0375 C   0  0  0  0  0  0  0  0  0  0  0  0
    6.5221   -2.4053   -1.0944 C   0  0  2  0  0  0  0  0  0  0  0  0
    5.9355   -1.7730   -2.3602 C   0  0  0  0  0  0  0  0  0  0  0  0
    4.8112   -2.0885   -2.7454 O   0  0  0  0  0  0  0  0  0  0  0  0
    6.7790   -0.9298   -3.0670 N   0  0  0  0  0  0  0  0  0  0  0  0
    6.4006   -0.2166   -4.2338 C   0  0  0  0  0  0  0  0  0  0  0  0
    5.0628    0.0196   -4.5774 C   0  0  0  0  0  0  0  0  0  0  0  0
    4.7254    0.6562   -5.7740 C   0  0  0  0  0  0  0  0  0  0  0  0
    5.7258    1.0842   -6.6377 C   0  0  0  0  0  0  0  0  0  0  0  0
    7.0623    0.9013   -6.2868 C   0  0  0  0  0  0  0  0  0  0  0  0
    7.4009    0.2662   -5.0830 C   0  0  0  0  0  0  0  0  0  0  0  0
    5.3574   -2.7569   -0.1423 C   0  0  0  0  0  0  0  0  0  0  0  0
    2.9221    0.0361    1.8792 H   0  0  0  0  0  0  0  0  0  0  0  0
    3.2851    0.7613    0.2754 H   0  0  0  0  0  0  0  0  0  0  0  0
    5.9179   -1.0763    2.0235 H   0  0  0  0  0  0  0  0  0  0  0  0
    5.1850    0.3371    1.3092 H   0  0  0  0  0  0  0  0  0  0  0  0
    7.6756    0.2182    0.8276 H   0  0  0  0  0  0  0  0  0  0  0  0
    6.6719    0.3453   -0.5997 H   0  0  0  0  0  0  0  0  0  0  0  0
   10.9127   -3.2168    2.4138 H   0  0  0  0  0  0  0  0  0  0  0  0
   13.2391   -2.0237    2.0510 H   0  0  0  0  0  0  0  0  0  0  0  0
   10.1158   -0.3888   -0.8189 H   0  0  0  0  0  0  0  0  0  0  0  0
    6.9976   -3.3245   -1.4567 H   0  0  0  0  0  0  0  0  0  0  0  0
    7.7612   -0.9503   -2.8195 H   0  0  0  0  0  0  0  0  0  0  0  0
    4.2440   -0.2823   -3.9303 H   0  0  0  0  0  0  0  0  0  0  0  0
    3.6779    0.8002   -6.0282 H   0  0  0  0  0  0  0  0  0  0  0  0
    5.4612    1.5552   -7.5807 H   0  0  0  0  0  0  0  0  0  0  0  0
    7.8430    1.2390   -6.9636 H   0  0  0  0  0  0  0  0  0  0  0  0
    8.4519    0.1211   -4.8517 H   0  0  0  0  0  0  0  0  0  0  0  0
    5.7114   -3.3386    0.7161 H   0  0  0  0  0  0  0  0  0  0  0  0
    4.6170   -3.3797   -0.6549 H   0  0  0  0  0  0  0  0  0  0  0  0
  1  2  1  0  0  0  0
  2  3  1  0  0  0  0
  2 28  1  0  0  0  0
  2 29  1  0  0  0  0
  3  4  2  0  0  0  0
  3  5  1  0  0  0  0
  5  6  1  0  0  0  0
  5 27  1  0  0  0  0
  6  7  1  0  0  0  0
  6 30  1  0  0  0  0
  6 31  1  0  0  0  0
  7  8  1  0  0  0  0
  7 32  1  0  0  0  0
  7 33  1  0  0  0  0
  8  9  1  0  0  0  0
  8 17  1  0  0  0  0
  9 10  2  0  0  0  0
  9 11  2  0  0  0  0
  9 12  1  0  0  0  0
 12 13  1  0  0  0  0
 12 16  2  0  0  0  0
 13 14  2  0  0  0  0
 13 34  1  0  0  0  0
 14 15  1  0  0  0  0
 14 35  1  0  0  0  0
 15 16  1  0  0  0  0
 16 36  1  0  0  0  0
 17 27  1  0  0  0  0
 17 18  1  0  0  0  0
 17 37  1  6  0  0  0
 18 19  2  0  0  0  0
 18 20  1  0  0  0  0
 20 21  1  0  0  0  0
 20 38  1  0  0  0  0
 21 22  1  0  0  0  0
 21 26  2  0  0  0  0
 22 23  2  0  0  0  0
 22 39  1  0  0  0  0
 23 24  1  0  0  0  0
 23 40  1  0  0  0  0
 24 25  2  0  0  0  0
 24 41  1  0  0  0  0
 25 26  1  0  0  0  0
 25 42  1  0  0  0  0
 26 43  1  0  0  0  0
 27 44  1  0  0  0  0
 27 45  1  0  0  0  0
M  END
$$$$
