
 OpenBabel07202414173D

 58 63  0  0  1  0  0  0  0  0999 V2000
    0.8927    0.2595   -0.0440 Cl  0  0  0  0  0  0  0  0  0  0  0  0
    2.6116    0.2037   -0.0241 C   0  0  0  0  0  0  0  0  0  0  0  0
    3.3427    1.3816    0.0005 C   0  0  0  0  0  0  0  0  0  0  0  0
    4.7319    1.3210   -0.0152 C   0  0  0  0  0  0  0  0  0  0  0  0
    5.3973    0.0824   -0.0435 C   0  0  0  0  0  0  0  0  0  0  0  0
    4.6609   -1.1283   -0.0457 C   0  0  0  0  0  0  0  0  0  0  0  0
    3.2562   -1.0328   -0.0437 C   0  0  0  0  0  0  0  0  0  0  0  0
    5.3768   -2.4999   -0.0770 C   0  0  3  0  0  0  0  0  0  0  0  0
    6.8813   -2.3272   -0.3517 C   0  0  0  0  0  0  0  0  0  0  0  0
    7.5027   -1.1625    0.3551 N   0  0  0  0  0  0  0  0  0  0  0  0
    7.7132   -1.1673    2.0418 S   0  0  0  0  0  0  0  0  0  0  0  0
    8.4233    0.0375    2.3876 O   0  0  0  0  0  0  0  0  0  0  0  0
    6.4300   -1.3597    2.6805 O   0  0  0  0  0  0  0  0  0  0  0  0
    8.8032   -2.5962    2.3055 C   0  0  0  0  0  0  0  0  0  0  0  0
   10.2655   -2.3712    1.9281 C   0  0  0  0  0  0  0  0  0  0  0  0
   11.0592   -3.5503    2.2261 C   0  0  0  0  0  0  0  0  0  0  0  0
   11.7050   -4.4873    2.4495 N   0  0  0  0  0  0  0  0  0  0  0  0
   10.7044   -1.5954    0.6885 C   0  0  0  0  0  0  0  0  0  0  0  0
   11.0258   -1.0522    2.0526 C   0  0  0  0  0  0  0  0  0  0  0  0
    6.9034    0.1025   -0.1042 C   0  0  0  0  0  0  0  0  0  0  0  0
    4.6940   -3.4346   -1.1194 C   0  0  0  0  0  0  0  0  0  0  0  0
    3.7785   -4.3679   -0.3093 C   0  0  0  0  0  0  0  0  0  0  0  0
    3.9173   -3.9491    1.0614 N   0  0  0  0  0  0  0  0  0  0  0  0
    3.3455   -4.6242    2.1680 C   0  0  0  0  0  0  0  0  0  0  0  0
    2.5718   -3.8400    3.0352 C   0  0  0  0  0  0  0  0  0  0  0  0
    1.7456   -4.3302    3.9857 N   0  0  0  0  0  0  0  0  0  0  0  0
    1.6421   -5.6712    4.0443 C   0  0  0  0  0  0  0  0  0  0  0  0
    2.3489   -6.5522    3.2262 C   0  0  0  0  0  0  0  0  0  0  0  0
    2.0910   -7.9342    3.2816 C   0  0  0  0  0  0  0  0  0  0  0  0
    2.7663   -8.8173    2.4472 C   0  0  0  0  0  0  0  0  0  0  0  0
    3.8231   -8.3520    1.6837 C   0  0  0  0  0  0  0  0  0  0  0  0
    4.1493   -6.9959    1.6993 C   0  0  0  0  0  0  0  0  0  0  0  0
    5.7535   -6.6412    1.1231 Cl  0  0  0  0  0  0  0  0  0  0  0  0
    3.3105   -6.0317    2.3290 C   0  0  0  0  0  0  0  0  0  0  0  0
    5.1715   -3.3610    1.1729 C   0  0  0  0  0  0  0  0  0  0  0  0
    6.0074   -3.6846    2.0042 O   0  0  0  0  0  0  0  0  0  0  0  0
    2.8429    2.3444    0.0327 H   0  0  0  0  0  0  0  0  0  0  0  0
    5.3016    2.2495    0.0076 H   0  0  0  0  0  0  0  0  0  0  0  0
    2.6339   -1.9213   -0.0657 H   0  0  0  0  0  0  0  0  0  0  0  0
    7.0263   -2.1352   -1.4262 H   0  0  0  0  0  0  0  0  0  0  0  0
    7.4541   -3.2411   -0.1643 H   0  0  0  0  0  0  0  0  0  0  0  0
    8.4129   -3.4437    1.7341 H   0  0  0  0  0  0  0  0  0  0  0  0
    8.7231   -2.8635    3.3663 H   0  0  0  0  0  0  0  0  0  0  0  0
    9.9867   -1.0510    0.0893 H   0  0  0  0  0  0  0  0  0  0  0  0
   11.5433   -1.9566    0.0993 H   0  0  0  0  0  0  0  0  0  0  0  0
   10.5612   -0.1202    2.3393 H   0  0  0  0  0  0  0  0  0  0  0  0
   12.0585   -1.0732    2.3864 H   0  0  0  0  0  0  0  0  0  0  0  0
    7.2282    0.2808   -1.1357 H   0  0  0  0  0  0  0  0  0  0  0  0
    7.2948    0.9479    0.4751 H   0  0  0  0  0  0  0  0  0  0  0  0
    5.4283   -4.0320   -1.6745 H   0  0  0  0  0  0  0  0  0  0  0  0
    4.1131   -2.8904   -1.8737 H   0  0  0  0  0  0  0  0  0  0  0  0
    4.1398   -5.3863   -0.4484 H   0  0  0  0  0  0  0  0  0  0  0  0
    2.7340   -4.3400   -0.6290 H   0  0  0  0  0  0  0  0  0  0  0  0
    2.5356   -2.7551    2.9385 H   0  0  0  0  0  0  0  0  0  0  0  0
    0.9433   -6.0313    4.7965 H   0  0  0  0  0  0  0  0  0  0  0  0
    1.3356   -8.3284    3.9597 H   0  0  0  0  0  0  0  0  0  0  0  0
    2.5139   -9.8711    2.4356 H   0  0  0  0  0  0  0  0  0  0  0  0
    4.4250   -9.0476    1.1042 H   0  0  0  0  0  0  0  0  0  0  0  0
  1  2  1  0  0  0  0
  2  3  1  0  0  0  0
  2  7  2  0  0  0  0
  3  4  2  0  0  0  0
  3 37  1  0  0  0  0
  4  5  1  0  0  0  0
  4 38  1  0  0  0  0
  5  6  2  0  0  0  0
  5 20  1  0  0  0  0
  6  7  1  0  0  0  0
  6  8  1  0  0  0  0
  7 39  1  0  0  0  0
  8  9  1  0  0  0  0
  8 21  1  0  0  0  0
  8 35  1  0  0  0  0
  9 10  1  0  0  0  0
  9 40  1  0  0  0  0
  9 41  1  0  0  0  0
 10 11  1  0  0  0  0
 10 20  1  0  0  0  0
 11 12  2  0  0  0  0
 11 13  2  0  0  0  0
 11 14  1  0  0  0  0
 14 15  1  0  0  0  0
 14 42  1  0  0  0  0
 14 43  1  0  0  0  0
 15 16  1  0  0  0  0
 15 18  1  0  0  0  0
 15 19  1  0  0  0  0
 16 17  3  0  0  0  0
 18 19  1  0  0  0  0
 18 44  1  0  0  0  0
 18 45  1  0  0  0  0
 19 46  1  0  0  0  0
 19 47  1  0  0  0  0
 20 48  1  0  0  0  0
 20 49  1  0  0  0  0
 21 22  1  0  0  0  0
 21 50  1  0  0  0  0
 21 51  1  0  0  0  0
 22 23  1  0  0  0  0
 22 52  1  0  0  0  0
 22 53  1  0  0  0  0
 23 24  1  0  0  0  0
 23 35  1  0  0  0  0
 24 25  1  0  0  0  0
 24 34  2  0  0  0  0
 25 26  2  0  0  0  0
 25 54  1  0  0  0  0
 26 27  1  0  0  0  0
 27 28  2  0  0  0  0
 27 55  1  0  0  0  0
 28 29  1  0  0  0  0
 28 34  1  0  0  0  0
 29 30  2  0  0  0  0
 29 56  1  0  0  0  0
 30 31  1  0  0  0  0
 30 57  1  0  0  0  0
 31 32  2  0  0  0  0
 31 58  1  0  0  0  0
 32 33  1  0  0  0  0
 32 34  1  0  0  0  0
 35 36  2  0  0  0  0
M  END
$$$$
