
 OpenBabel07202414163D

 41 43  0  0  0  0  0  0  0  0999 V2000
   -3.9709    3.7495    5.2196 C   0  0  0  0  0  0  0  0  0  0  0  0
   -2.9003    4.7675    4.9453 C   0  0  0  0  0  0  0  0  0  0  0  0
   -2.3843    5.4855    6.0397 C   0  0  0  0  0  0  0  0  0  0  0  0
   -1.3817    6.4143    5.8348 C   0  0  0  0  0  0  0  0  0  0  0  0
   -0.8382    6.6648    4.6326 N   0  0  0  0  0  0  0  0  0  0  0  0
   -1.3448    5.9685    3.5837 C   0  0  0  0  0  0  0  0  0  0  0  0
   -2.3764    5.0273    3.6646 C   0  0  0  0  0  0  0  0  0  0  0  0
   -2.8702    4.3403    2.5217 N   0  0  0  0  0  0  0  0  0  0  0  0
   -2.6633    4.7267    1.2049 C   0  0  0  0  0  0  0  0  0  0  0  0
   -2.1005    5.7611    0.8452 O   0  0  0  0  0  0  0  0  0  0  0  0
   -3.2002    3.7612    0.1617 C   0  0  0  0  0  0  0  0  0  0  0  0
   -4.6999    3.6021    0.1781 C   0  0  0  0  0  0  0  0  0  0  0  0
   -5.5314    4.7314    0.1323 C   0  0  0  0  0  0  0  0  0  0  0  0
   -6.9223    4.5987    0.1687 C   0  0  0  0  0  0  0  0  0  0  0  0
   -7.4933    3.3266    0.1573 C   0  0  0  0  0  0  0  0  0  0  0  0
   -6.6730    2.1998    0.1676 C   0  0  0  0  0  0  0  0  0  0  0  0
   -5.2838    2.3301    0.1880 C   0  0  0  0  0  0  0  0  0  0  0  0
   -7.3757    0.6288    0.1737 Cl  0  0  0  0  0  0  0  0  0  0  0  0
   -7.8007    5.6504    0.2164 O   0  0  0  0  0  0  0  0  0  0  0  0
   -7.2532    6.8585    0.7617 C   0  0  0  0  0  0  0  0  0  0  0  0
   -8.3750    7.6938    1.2501 C   0  0  0  0  0  0  0  0  0  0  0  0
   -9.6021    7.7330    0.6509 N   0  0  0  0  0  0  0  0  0  0  0  0
  -10.4241    8.5883    1.2810 N   0  0  0  0  0  0  0  0  0  0  0  0
   -9.6392    9.0338    2.2639 C   0  0  0  0  0  0  0  0  0  0  0  0
   -8.3771    8.5167    2.2793 N   0  0  0  0  0  0  0  0  0  0  0  0
   -4.4131    3.8992    6.2122 H   0  0  0  0  0  0  0  0  0  0  0  0
   -3.5468    2.7410    5.1915 H   0  0  0  0  0  0  0  0  0  0  0  0
   -4.7891    3.8276    4.4982 H   0  0  0  0  0  0  0  0  0  0  0  0
   -2.7651    5.3330    7.0455 H   0  0  0  0  0  0  0  0  0  0  0  0
   -0.9753    6.9993    6.6558 H   0  0  0  0  0  0  0  0  0  0  0  0
   -0.8400    6.1940    2.6501 H   0  0  0  0  0  0  0  0  0  0  0  0
   -3.5358    3.5951    2.6839 H   0  0  0  0  0  0  0  0  0  0  0  0
   -2.6913    2.8003    0.2928 H   0  0  0  0  0  0  0  0  0  0  0  0
   -2.9121    4.1387   -0.8284 H   0  0  0  0  0  0  0  0  0  0  0  0
   -5.0678    5.7141    0.0682 H   0  0  0  0  0  0  0  0  0  0  0  0
   -8.5744    3.2161    0.1560 H   0  0  0  0  0  0  0  0  0  0  0  0
   -4.6608    1.4382    0.1979 H   0  0  0  0  0  0  0  0  0  0  0  0
   -6.7041    7.3982   -0.0175 H   0  0  0  0  0  0  0  0  0  0  0  0
   -6.5933    6.6483    1.6129 H   0  0  0  0  0  0  0  0  0  0  0  0
   -9.9310    7.2134   -0.1552 H   0  0  0  0  0  0  0  0  0  0  0  0
   -9.9936    9.7550    2.9895 H   0  0  0  0  0  0  0  0  0  0  0  0
  1  2  1  0  0  0  0
  1 26  1  0  0  0  0
  1 27  1  0  0  0  0
  1 28  1  0  0  0  0
  2  3  1  0  0  0  0
  2  7  2  0  0  0  0
  3  4  2  0  0  0  0
  3 29  1  0  0  0  0
  4  5  1  0  0  0  0
  4 30  1  0  0  0  0
  5  6  2  0  0  0  0
  6  7  1  0  0  0  0
  6 31  1  0  0  0  0
  7  8  1  0  0  0  0
  8  9  1  0  0  0  0
  8 32  1  0  0  0  0
  9 10  2  0  0  0  0
  9 11  1  0  0  0  0
 11 12  1  0  0  0  0
 11 33  1  0  0  0  0
 11 34  1  0  0  0  0
 12 13  1  0  0  0  0
 12 17  2  0  0  0  0
 13 14  2  0  0  0  0
 13 35  1  0  0  0  0
 14 15  1  0  0  0  0
 14 19  1  0  0  0  0
 15 16  2  0  0  0  0
 15 36  1  0  0  0  0
 16 17  1  0  0  0  0
 16 18  1  0  0  0  0
 17 37  1  0  0  0  0
 19 20  1  0  0  0  0
 20 21  1  0  0  0  0
 20 38  1  0  0  0  0
 20 39  1  0  0  0  0
 21 22  1  0  0  0  0
 21 25  2  0  0  0  0
 22 23  1  0  0  0  0
 22 40  1  0  0  0  0
 23 24  2  0  0  0  0
 24 25  1  0  0  0  0
 24 41  1  0  0  0  0
M  END
$$$$
