
 OpenBabel07202414133D

 55 58  0  0  0  0  0  0  0  0999 V2000
    0.8944   -0.0245   -0.1098 C   0  0  0  0  0  0  0  0  0  0  0  0
    2.3957   -0.0117   -0.0104 C   0  0  0  0  0  0  0  0  0  0  0  0
    3.0733   -1.1671   -0.0327 C   0  0  0  0  0  0  0  0  0  0  0  0
    4.5174   -1.2295   -0.0165 C   0  0  0  0  0  0  0  0  0  0  0  0
    5.0920   -2.6225   -0.0134 C   0  0  0  0  0  0  0  0  0  0  0  0
    5.2367   -0.0893   -0.0152 C   0  0  0  0  0  0  0  0  0  0  0  0
    6.7352    0.1005    0.0533 C   0  0  0  0  0  0  0  0  0  0  0  0
    7.5661   -1.1007    0.2090 N   0  0  0  0  0  0  0  0  0  0  0  0
    4.5050    1.2189   -0.0610 C   0  0  0  0  0  0  0  0  0  0  0  0
    5.1526    2.2639   -0.0972 O   0  0  0  0  0  0  0  0  0  0  0  0
    3.0942    1.2133   -0.0062 N   0  0  0  0  0  0  0  0  0  0  0  0
    2.4183    2.4736    0.0719 C   0  0  0  0  0  0  0  0  0  0  0  0
    1.5828    2.7817    1.1542 C   0  0  0  0  0  0  0  0  0  0  0  0
    0.8538    3.9829    1.2252 C   0  0  0  0  0  0  0  0  0  0  0  0
   -0.1558    4.1729    2.3452 C   0  0  0  0  0  0  0  0  0  0  0  0
   -0.1224    5.4209    3.2089 C   0  0  0  0  0  0  0  0  0  0  0  0
   -1.1761    5.8078    3.7369 O   0  0  0  0  0  0  0  0  0  0  0  0
    1.0769    6.0536    3.4002 N   0  0  0  0  0  0  0  0  0  0  0  0
    1.2706    7.2543    4.1434 C   0  0  0  0  0  0  0  0  0  0  0  0
    1.9672    8.2672    3.4682 C   0  0  0  0  0  0  0  0  0  0  0  0
    2.4213    9.4072    4.0204 N   0  0  0  0  0  0  0  0  0  0  0  0
    2.2787    9.5120    5.3462 C   0  0  0  0  0  0  0  0  0  0  0  0
    1.6004    8.5697    6.1236 C   0  0  0  0  0  0  0  0  0  0  0  0
    1.5460    8.7667    7.4966 C   0  0  0  0  0  0  0  0  0  0  0  0
    0.3873    8.4045    8.1588 C   0  0  0  0  0  0  0  0  0  0  0  0
   -0.3574    7.3913    7.5976 C   0  0  0  0  0  0  0  0  0  0  0  0
   -0.0075    6.8286    6.3513 C   0  0  0  0  0  0  0  0  0  0  0  0
    0.9342    7.4881    5.5134 C   0  0  0  0  0  0  0  0  0  0  0  0
    0.9721    4.8948    0.1720 C   0  0  0  0  0  0  0  0  0  0  0  0
    1.8403    4.6200   -0.8973 C   0  0  0  0  0  0  0  0  0  0  0  0
    1.9605    5.7477   -2.1966 Cl  0  0  0  0  0  0  0  0  0  0  0  0
    2.5747    3.4334   -0.9497 C   0  0  0  0  0  0  0  0  0  0  0  0
    0.5133   -1.0357   -0.2787 H   0  0  0  0  0  0  0  0  0  0  0  0
    0.5488    0.5879   -0.9500 H   0  0  0  0  0  0  0  0  0  0  0  0
    0.4309    0.3329    0.8131 H   0  0  0  0  0  0  0  0  0  0  0  0
    2.5265   -2.1065   -0.0727 H   0  0  0  0  0  0  0  0  0  0  0  0
    4.3246   -3.3880   -0.1770 H   0  0  0  0  0  0  0  0  0  0  0  0
    5.5551   -2.8484    0.9524 H   0  0  0  0  0  0  0  0  0  0  0  0
    5.8206   -2.7547   -0.8180 H   0  0  0  0  0  0  0  0  0  0  0  0
    6.9795    0.7562    0.9020 H   0  0  0  0  0  0  0  0  0  0  0  0
    7.0740    0.6095   -0.8581 H   0  0  0  0  0  0  0  0  0  0  0  0
    7.4281   -1.4744    1.1456 H   0  0  0  0  0  0  0  0  0  0  0  0
    8.5477   -0.8275    0.1664 H   0  0  0  0  0  0  0  0  0  0  0  0
    1.4990    2.0496    1.9609 H   0  0  0  0  0  0  0  0  0  0  0  0
   -0.1034    3.3260    3.0397 H   0  0  0  0  0  0  0  0  0  0  0  0
   -1.1464    4.1371    1.8745 H   0  0  0  0  0  0  0  0  0  0  0  0
    1.7372    5.8970    2.6538 H   0  0  0  0  0  0  0  0  0  0  0  0
    2.1317    8.2062    2.3957 H   0  0  0  0  0  0  0  0  0  0  0  0
    2.6625   10.4256    5.7909 H   0  0  0  0  0  0  0  0  0  0  0  0
    2.4656    8.4672    8.0290 H   0  0  0  0  0  0  0  0  0  0  0  0
    0.1399    8.8741    9.0978 H   0  0  0  0  0  0  0  0  0  0  0  0
   -1.2383    7.0100    8.1497 H   0  0  0  0  0  0  0  0  0  0  0  0
   -0.5597    5.9730    6.0089 H   0  0  0  0  0  0  0  0  0  0  0  0
    0.3740    5.8009    0.1502 H   0  0  0  0  0  0  0  0  0  0  0  0
    3.2240    3.2320   -1.7997 H   0  0  0  0  0  0  0  0  0  0  0  0
  1  2  1  0  0  0  0
  1 33  1  0  0  0  0
  1 34  1  0  0  0  0
  1 35  1  0  0  0  0
  2  3  2  0  0  0  0
  2 11  1  0  0  0  0
  3  4  1  0  0  0  0
  3 36  1  0  0  0  0
  4  5  1  0  0  0  0
  4  6  2  0  0  0  0
  5 37  1  0  0  0  0
  5 38  1  0  0  0  0
  5 39  1  0  0  0  0
  6  7  1  0  0  0  0
  6  9  1  0  0  0  0
  7  8  1  0  0  0  0
  7 40  1  0  0  0  0
  7 41  1  0  0  0  0
  8 42  1  0  0  0  0
  8 43  1  0  0  0  0
  9 10  2  0  0  0  0
  9 11  1  0  0  0  0
 11 12  1  0  0  0  0
 12 13  2  0  0  0  0
 12 32  1  0  0  0  0
 13 14  1  0  0  0  0
 13 44  1  0  0  0  0
 14 15  1  0  0  0  0
 14 29  2  0  0  0  0
 15 16  1  0  0  0  0
 15 45  1  0  0  0  0
 15 46  1  0  0  0  0
 16 17  2  0  0  0  0
 16 18  1  0  0  0  0
 18 19  1  0  0  0  0
 18 47  1  0  0  0  0
 19 20  2  0  0  0  0
 19 28  1  0  0  0  0
 20 21  1  0  0  0  0
 20 48  1  0  0  0  0
 21 22  2  0  0  0  0
 22 23  1  0  0  0  0
 22 49  1  0  0  0  0
 23 24  2  0  0  0  0
 23 28  1  0  0  0  0
 24 25  1  0  0  0  0
 24 50  1  0  0  0  0
 25 26  2  0  0  0  0
 25 51  1  0  0  0  0
 26 27  1  0  0  0  0
 26 52  1  0  0  0  0
 27 28  2  0  0  0  0
 27 53  1  0  0  0  0
 29 30  1  0  0  0  0
 29 54  1  0  0  0  0
 30 31  1  0  0  0  0
 30 32  2  0  0  0  0
 32 55  1  0  0  0  0
M  END
$$$$
