
 OpenBabel07202414133D

 51 53  0  0  0  0  0  0  0  0999 V2000
    2.7421    0.0188   -8.7613 C   0  0  0  0  0  0  0  0  0  0  0  0
    3.6289    0.9507   -7.9548 C   0  0  0  0  0  0  0  0  0  0  0  0
    4.5600    0.1433   -7.2262 O   0  0  0  0  0  0  0  0  0  0  0  0
    4.0889   -0.3422   -6.0480 C   0  0  0  0  0  0  0  0  0  0  0  0
    3.0899    0.0900   -5.4851 O   0  0  0  0  0  0  0  0  0  0  0  0
    4.8186   -1.4228   -5.5918 N   0  0  0  0  0  0  0  0  0  0  0  0
    4.3191   -2.1739   -4.4540 C   0  0  0  0  0  0  0  0  0  0  0  0
    5.4275   -2.3867   -3.4402 C   0  0  0  0  0  0  0  0  0  0  0  0
    6.6588   -3.0314   -4.0783 C   0  0  0  0  0  0  0  0  0  0  0  0
    7.1067   -2.2765   -5.3405 C   0  0  0  0  0  0  0  0  0  0  0  0
    5.9535   -2.0071   -6.3010 C   0  0  0  0  0  0  0  0  0  0  0  0
    6.4553   -4.4582   -4.3385 N   0  0  0  0  0  0  0  0  0  0  0  0
    7.5351   -5.3096   -4.3038 C   0  0  0  0  0  0  0  0  0  0  0  0
    8.6549   -4.9094   -4.0090 O   0  0  0  0  0  0  0  0  0  0  0  0
    7.2113   -6.6158   -4.6070 N   0  0  0  0  0  0  0  0  0  0  0  0
    8.0805   -7.6952   -4.5243 C   0  0  0  0  0  0  0  0  0  0  0  0
    9.1588   -7.6816   -3.7203 C   0  0  0  0  0  0  0  0  0  0  0  0
   10.0627   -8.7163   -3.6153 N   0  0  0  0  0  0  0  0  0  0  0  0
    9.9326   -9.8966   -4.3366 C   0  0  0  0  0  0  0  0  0  0  0  0
   10.7288  -10.8291   -4.2651 O   0  0  0  0  0  0  0  0  0  0  0  0
    8.7598   -9.9864   -5.2446 C   0  0  0  0  0  0  0  0  0  0  0  0
    7.8488   -8.9157   -5.3406 C   0  0  0  0  0  0  0  0  0  0  0  0
    6.7998   -9.0403   -6.2695 C   0  0  0  0  0  0  0  0  0  0  0  0
    6.6680  -10.1875   -7.0641 C   0  0  0  0  0  0  0  0  0  0  0  0
    7.5741  -11.2364   -6.9457 C   0  0  0  0  0  0  0  0  0  0  0  0
    8.6192  -11.1385   -6.0340 C   0  0  0  0  0  0  0  0  0  0  0  0
   11.2504   -8.5458   -2.7947 C   0  0  0  0  0  0  0  0  0  0  0  0
    2.0449    0.5792   -9.3914 H   0  0  0  0  0  0  0  0  0  0  0  0
    2.1721   -0.6465   -8.1091 H   0  0  0  0  0  0  0  0  0  0  0  0
    3.3575   -0.6262   -9.4041 H   0  0  0  0  0  0  0  0  0  0  0  0
    3.0379    1.5997   -7.2992 H   0  0  0  0  0  0  0  0  0  0  0  0
    4.2030    1.6000   -8.6234 H   0  0  0  0  0  0  0  0  0  0  0  0
    3.9391   -3.1306   -4.8312 H   0  0  0  0  0  0  0  0  0  0  0  0
    3.4767   -1.6632   -3.9763 H   0  0  0  0  0  0  0  0  0  0  0  0
    5.0609   -2.9890   -2.6018 H   0  0  0  0  0  0  0  0  0  0  0  0
    5.7186   -1.4082   -3.0345 H   0  0  0  0  0  0  0  0  0  0  0  0
    7.4721   -2.9539   -3.3455 H   0  0  0  0  0  0  0  0  0  0  0  0
    7.9047   -2.8166   -5.8629 H   0  0  0  0  0  0  0  0  0  0  0  0
    7.5262   -1.3103   -5.0312 H   0  0  0  0  0  0  0  0  0  0  0  0
    5.6073   -2.9402   -6.7621 H   0  0  0  0  0  0  0  0  0  0  0  0
    6.3004   -1.3565   -7.1106 H   0  0  0  0  0  0  0  0  0  0  0  0
    5.6059   -4.7647   -4.7852 H   0  0  0  0  0  0  0  0  0  0  0  0
    6.3317   -6.7545   -5.0733 H   0  0  0  0  0  0  0  0  0  0  0  0
    9.3740   -6.8320   -3.0797 H   0  0  0  0  0  0  0  0  0  0  0  0
    6.0765   -8.2474   -6.4256 H   0  0  0  0  0  0  0  0  0  0  0  0
    5.8618  -10.2548   -7.7914 H   0  0  0  0  0  0  0  0  0  0  0  0
    7.4788  -12.1212   -7.5692 H   0  0  0  0  0  0  0  0  0  0  0  0
    9.3386  -11.9508   -5.9494 H   0  0  0  0  0  0  0  0  0  0  0  0
   11.1969   -7.6391   -2.1839 H   0  0  0  0  0  0  0  0  0  0  0  0
   12.1217   -8.4847   -3.4552 H   0  0  0  0  0  0  0  0  0  0  0  0
   11.3681   -9.4131   -2.1384 H   0  0  0  0  0  0  0  0  0  0  0  0
  1  2  1  0  0  0  0
  1 28  1  0  0  0  0
  1 29  1  0  0  0  0
  1 30  1  0  0  0  0
  2  3  1  0  0  0  0
  2 31  1  0  0  0  0
  2 32  1  0  0  0  0
  3  4  1  0  0  0  0
  4  5  2  0  0  0  0
  4  6  1  0  0  0  0
  6  7  1  0  0  0  0
  6 11  1  0  0  0  0
  7  8  1  0  0  0  0
  7 33  1  0  0  0  0
  7 34  1  0  0  0  0
  8  9  1  0  0  0  0
  8 35  1  0  0  0  0
  8 36  1  0  0  0  0
  9 10  1  0  0  0  0
  9 12  1  0  0  0  0
  9 37  1  0  0  0  0
 10 11  1  0  0  0  0
 10 38  1  0  0  0  0
 10 39  1  0  0  0  0
 11 40  1  0  0  0  0
 11 41  1  0  0  0  0
 12 13  1  0  0  0  0
 12 42  1  0  0  0  0
 13 14  2  0  0  0  0
 13 15  1  0  0  0  0
 15 16  1  0  0  0  0
 15 43  1  0  0  0  0
 16 17  2  0  0  0  0
 16 22  1  0  0  0  0
 17 18  1  0  0  0  0
 17 44  1  0  0  0  0
 18 19  1  0  0  0  0
 18 27  1  0  0  0  0
 19 20  2  0  0  0  0
 19 21  1  0  0  0  0
 21 22  1  0  0  0  0
 21 26  2  0  0  0  0
 22 23  2  0  0  0  0
 23 24  1  0  0  0  0
 23 45  1  0  0  0  0
 24 25  2  0  0  0  0
 24 46  1  0  0  0  0
 25 26  1  0  0  0  0
 25 47  1  0  0  0  0
 26 48  1  0  0  0  0
 27 49  1  0  0  0  0
 27 50  1  0  0  0  0
 27 51  1  0  0  0  0
M  END
$$$$
