
 OpenBabel07202414113D

 55 58  0  0  0  0  0  0  0  0999 V2000
    0.8707    6.5010    3.0303 C   0  0  0  0  0  0  0  0  0  0  0  0
    1.8922    6.2765    2.1851 C   0  0  0  0  0  0  0  0  0  0  0  0
    2.8899    5.2100    2.4876 C   0  0  0  0  0  0  0  0  0  0  0  0
    2.7087    4.4619    3.4433 O   0  0  0  0  0  0  0  0  0  0  0  0
    3.9807    5.2236    1.6324 N   0  0  0  0  0  0  0  0  0  0  0  0
    5.1037    4.3620    1.7183 C   0  0  0  0  0  0  0  0  0  0  0  0
    5.0954    3.2050    2.5048 C   0  0  0  0  0  0  0  0  0  0  0  0
    6.2420    2.4261    2.6466 C   0  0  0  0  0  0  0  0  0  0  0  0
    7.4185    2.7860    1.9937 C   0  0  0  0  0  0  0  0  0  0  0  0
    7.4470    3.9169    1.1699 C   0  0  0  0  0  0  0  0  0  0  0  0
    8.6999    4.3186    0.6034 N   0  0  0  0  0  0  0  0  0  0  0  0
    9.1148    3.6461   -0.6423 C   0  0  0  0  0  0  0  0  0  0  0  0
    9.8294    2.3130   -0.4856 C   0  0  0  0  0  0  0  0  0  0  0  0
   10.6772    2.0499    0.6097 C   0  0  0  0  0  0  0  0  0  0  0  0
   11.3078    0.8105    0.7556 C   0  0  0  0  0  0  0  0  0  0  0  0
   12.3231    0.5256    2.1145 Cl  0  0  0  0  0  0  0  0  0  0  0  0
   11.1182   -0.1934   -0.1855 C   0  0  0  0  0  0  0  0  0  0  0  0
   10.3338    0.0636   -1.3079 C   0  0  0  0  0  0  0  0  0  0  0  0
    9.7155    1.3109   -1.4694 C   0  0  0  0  0  0  0  0  0  0  0  0
    8.8402    1.5625   -2.9393 Cl  0  0  0  0  0  0  0  0  0  0  0  0
    9.3885    5.3749    1.2051 C   0  0  0  0  0  0  0  0  0  0  0  0
    8.9093    6.0466    2.1258 O   0  0  0  0  0  0  0  0  0  0  0  0
   10.8177    5.6587    0.7550 C   0  0  0  0  0  0  0  0  0  0  0  0
   11.0441    6.8192   -0.1856 C   0  0  0  0  0  0  0  0  0  0  0  0
   10.0344    7.7356   -0.4734 C   0  0  0  0  0  0  0  0  0  0  0  0
   10.2096    8.8593   -1.1994 N   0  0  0  0  0  0  0  0  0  0  0  0
   11.4429    9.0676   -1.7071 C   0  0  0  0  0  0  0  0  0  0  0  0
   12.5068    8.1763   -1.5895 C   0  0  0  0  0  0  0  0  0  0  0  0
   13.7198    8.3831   -2.2735 C   0  0  0  0  0  0  0  0  0  0  0  0
   14.7653    7.4705   -2.1576 C   0  0  0  0  0  0  0  0  0  0  0  0
   14.6351    6.3848   -1.3022 C   0  0  0  0  0  0  0  0  0  0  0  0
   13.4391    6.1819   -0.6063 C   0  0  0  0  0  0  0  0  0  0  0  0
   12.3241    7.0396   -0.7729 C   0  0  0  0  0  0  0  0  0  0  0  0
    6.2805    4.6923    1.0144 C   0  0  0  0  0  0  0  0  0  0  0  0
    0.1317    7.2673    2.8292 H   0  0  0  0  0  0  0  0  0  0  0  0
    0.7505    5.9213    3.9441 H   0  0  0  0  0  0  0  0  0  0  0  0
    1.9981    6.8585    1.2787 H   0  0  0  0  0  0  0  0  0  0  0  0
    4.0532    5.9903    0.9773 H   0  0  0  0  0  0  0  0  0  0  0  0
    4.2047    2.8793    3.0349 H   0  0  0  0  0  0  0  0  0  0  0  0
    6.2246    1.5613    3.3043 H   0  0  0  0  0  0  0  0  0  0  0  0
    8.3166    2.2147    2.1868 H   0  0  0  0  0  0  0  0  0  0  0  0
    9.7599    4.3166   -1.2215 H   0  0  0  0  0  0  0  0  0  0  0  0
    8.1988    3.5228   -1.2307 H   0  0  0  0  0  0  0  0  0  0  0  0
   10.8449    2.8002    1.3775 H   0  0  0  0  0  0  0  0  0  0  0  0
   11.5835   -1.1677   -0.0598 H   0  0  0  0  0  0  0  0  0  0  0  0
   10.2091   -0.7137   -2.0590 H   0  0  0  0  0  0  0  0  0  0  0  0
   11.2597    4.7557    0.3337 H   0  0  0  0  0  0  0  0  0  0  0  0
   11.3830    5.8670    1.6744 H   0  0  0  0  0  0  0  0  0  0  0  0
    9.0154    7.6049   -0.1180 H   0  0  0  0  0  0  0  0  0  0  0  0
   11.5560   10.0103   -2.2369 H   0  0  0  0  0  0  0  0  0  0  0  0
   13.8419    9.2410   -2.9318 H   0  0  0  0  0  0  0  0  0  0  0  0
   15.6785    7.6085   -2.7310 H   0  0  0  0  0  0  0  0  0  0  0  0
   15.4587    5.6850   -1.1823 H   0  0  0  0  0  0  0  0  0  0  0  0
   13.3917    5.3230    0.0584 H   0  0  0  0  0  0  0  0  0  0  0  0
    6.3117    5.5787    0.3865 H   0  0  0  0  0  0  0  0  0  0  0  0
  1  2  2  0  0  0  0
  1 35  1  0  0  0  0
  1 36  1  0  0  0  0
  2  3  1  0  0  0  0
  2 37  1  0  0  0  0
  3  4  2  0  0  0  0
  3  5  1  0  0  0  0
  5  6  1  0  0  0  0
  5 38  1  0  0  0  0
  6  7  1  0  0  0  0
  6 34  2  0  0  0  0
  7  8  2  0  0  0  0
  7 39  1  0  0  0  0
  8  9  1  0  0  0  0
  8 40  1  0  0  0  0
  9 10  2  0  0  0  0
  9 41  1  0  0  0  0
 10 11  1  0  0  0  0
 10 34  1  0  0  0  0
 11 12  1  0  0  0  0
 11 21  1  0  0  0  0
 12 13  1  0  0  0  0
 12 42  1  0  0  0  0
 12 43  1  0  0  0  0
 13 14  1  0  0  0  0
 13 19  2  0  0  0  0
 14 15  2  0  0  0  0
 14 44  1  0  0  0  0
 15 16  1  0  0  0  0
 15 17  1  0  0  0  0
 17 18  2  0  0  0  0
 17 45  1  0  0  0  0
 18 19  1  0  0  0  0
 18 46  1  0  0  0  0
 19 20  1  0  0  0  0
 21 22  2  0  0  0  0
 21 23  1  0  0  0  0
 23 24  1  0  0  0  0
 23 47  1  0  0  0  0
 23 48  1  0  0  0  0
 24 25  1  0  0  0  0
 24 33  2  0  0  0  0
 25 26  2  0  0  0  0
 25 49  1  0  0  0  0
 26 27  1  0  0  0  0
 27 28  2  0  0  0  0
 27 50  1  0  0  0  0
 28 29  1  0  0  0  0
 28 33  1  0  0  0  0
 29 30  2  0  0  0  0
 29 51  1  0  0  0  0
 30 31  1  0  0  0  0
 30 52  1  0  0  0  0
 31 32  2  0  0  0  0
 31 53  1  0  0  0  0
 32 33  1  0  0  0  0
 32 54  1  0  0  0  0
 34 55  1  0  0  0  0
M  END
$$$$
