
 OpenBabel07202414163D

 56 59  0  0  0  0  0  0  0  0999 V2000
   -5.4459    4.4426   -4.5736 C   0  0  0  0  0  0  0  0  0  0  0  0
   -3.9624    4.3990   -4.8124 C   0  0  0  0  0  0  0  0  0  0  0  0
   -3.5093    4.4582   -6.1416 C   0  0  0  0  0  0  0  0  0  0  0  0
   -2.1491    4.4445   -6.3987 C   0  0  0  0  0  0  0  0  0  0  0  0
   -1.2138    4.4034   -5.4366 N   0  0  0  0  0  0  0  0  0  0  0  0
   -1.6635    4.3431   -4.1560 C   0  0  0  0  0  0  0  0  0  0  0  0
   -3.0095    4.3238   -3.7790 C   0  0  0  0  0  0  0  0  0  0  0  0
   -3.4282    4.2421   -2.4248 N   0  0  0  0  0  0  0  0  0  0  0  0
   -2.6319    3.8783   -1.3502 C   0  0  0  0  0  0  0  0  0  0  0  0
   -1.4442    3.5601   -1.4311 O   0  0  0  0  0  0  0  0  0  0  0  0
   -3.2739    3.9447    0.0264 C   0  0  0  0  0  0  0  0  0  0  0  0
   -4.7628    3.7216    0.0852 C   0  0  0  0  0  0  0  0  0  0  0  0
   -5.6370    4.8164    0.1283 C   0  0  0  0  0  0  0  0  0  0  0  0
   -7.0188    4.6276    0.1859 C   0  0  0  0  0  0  0  0  0  0  0  0
   -7.5407    3.3346    0.1472 C   0  0  0  0  0  0  0  0  0  0  0  0
   -6.6747    2.2411    0.1147 C   0  0  0  0  0  0  0  0  0  0  0  0
   -5.2933    2.4255    0.0890 C   0  0  0  0  0  0  0  0  0  0  0  0
   -7.3205    0.6459    0.1115 Cl  0  0  0  0  0  0  0  0  0  0  0  0
   -7.7529    5.7799    0.2701 O   0  0  0  0  0  0  0  0  0  0  0  0
   -9.0500    5.6326    0.8584 C   0  0  0  0  0  0  0  0  0  0  0  0
   -9.5115    6.9655    1.3123 C   0  0  0  0  0  0  0  0  0  0  0  0
  -10.6286    7.5932    1.0039 N   0  0  0  0  0  0  0  0  0  0  0  0
  -10.6325    8.7585    1.7335 N   0  0  0  0  0  0  0  0  0  0  0  0
   -9.5222    8.7702    2.4380 C   0  0  0  0  0  0  0  0  0  0  0  0
   -8.7548    7.6498    2.2361 O   0  0  0  0  0  0  0  0  0  0  0  0
   -9.0309    9.8479    3.3399 C   0  0  0  0  0  0  0  0  0  0  0  0
   -7.6411   10.3558    2.9435 C   0  0  0  0  0  0  0  0  0  0  0  0
   -7.2580   11.5685    3.7914 C   0  0  0  0  0  0  0  0  0  0  0  0
   -7.3288   11.2619    5.2876 C   0  0  0  0  0  0  0  0  0  0  0  0
   -8.6710   10.6550    5.6935 C   0  0  0  0  0  0  0  0  0  0  0  0
   -9.0500    9.4541    4.8211 C   0  0  0  0  0  0  0  0  0  0  0  0
   -6.0011    4.2227   -5.4943 H   0  0  0  0  0  0  0  0  0  0  0  0
   -5.7438    5.4392   -4.2326 H   0  0  0  0  0  0  0  0  0  0  0  0
   -5.7543    3.6935   -3.8391 H   0  0  0  0  0  0  0  0  0  0  0  0
   -4.2041    4.5052   -6.9740 H   0  0  0  0  0  0  0  0  0  0  0  0
   -1.7675    4.4720   -7.4152 H   0  0  0  0  0  0  0  0  0  0  0  0
   -0.8566    4.3427   -3.4312 H   0  0  0  0  0  0  0  0  0  0  0  0
   -4.4195    4.3463   -2.2534 H   0  0  0  0  0  0  0  0  0  0  0  0
   -3.0185    4.9158    0.4663 H   0  0  0  0  0  0  0  0  0  0  0  0
   -2.7893    3.1852    0.6547 H   0  0  0  0  0  0  0  0  0  0  0  0
   -5.2426    5.8325    0.1392 H   0  0  0  0  0  0  0  0  0  0  0  0
   -8.6103    3.1524    0.1404 H   0  0  0  0  0  0  0  0  0  0  0  0
   -4.6323    1.5601    0.0766 H   0  0  0  0  0  0  0  0  0  0  0  0
   -9.0272    4.9596    1.7207 H   0  0  0  0  0  0  0  0  0  0  0  0
   -9.7417    5.2476    0.1001 H   0  0  0  0  0  0  0  0  0  0  0  0
   -9.7336   10.6840    3.2163 H   0  0  0  0  0  0  0  0  0  0  0  0
   -7.6230   10.6328    1.8827 H   0  0  0  0  0  0  0  0  0  0  0  0
   -6.8913    9.5645    3.0760 H   0  0  0  0  0  0  0  0  0  0  0  0
   -7.9360   12.3995    3.5588 H   0  0  0  0  0  0  0  0  0  0  0  0
   -6.2476   11.9005    3.5284 H   0  0  0  0  0  0  0  0  0  0  0  0
   -7.1550   12.1837    5.8559 H   0  0  0  0  0  0  0  0  0  0  0  0
   -6.5229   10.5681    5.5512 H   0  0  0  0  0  0  0  0  0  0  0  0
   -9.4525   11.4212    5.6100 H   0  0  0  0  0  0  0  0  0  0  0  0
   -8.6348   10.3550    6.7468 H   0  0  0  0  0  0  0  0  0  0  0  0
  -10.0448    9.0959    5.1125 H   0  0  0  0  0  0  0  0  0  0  0  0
   -8.3506    8.6292    5.0101 H   0  0  0  0  0  0  0  0  0  0  0  0
  1  2  1  0  0  0  0
  1 32  1  0  0  0  0
  1 33  1  0  0  0  0
  1 34  1  0  0  0  0
  2  3  1  0  0  0  0
  2  7  2  0  0  0  0
  3  4  2  0  0  0  0
  3 35  1  0  0  0  0
  4  5  1  0  0  0  0
  4 36  1  0  0  0  0
  5  6  2  0  0  0  0
  6  7  1  0  0  0  0
  6 37  1  0  0  0  0
  7  8  1  0  0  0  0
  8  9  1  0  0  0  0
  8 38  1  0  0  0  0
  9 10  2  0  0  0  0
  9 11  1  0  0  0  0
 11 12  1  0  0  0  0
 11 39  1  0  0  0  0
 11 40  1  0  0  0  0
 12 13  1  0  0  0  0
 12 17  2  0  0  0  0
 13 14  2  0  0  0  0
 13 41  1  0  0  0  0
 14 15  1  0  0  0  0
 14 19  1  0  0  0  0
 15 16  2  0  0  0  0
 15 42  1  0  0  0  0
 16 17  1  0  0  0  0
 16 18  1  0  0  0  0
 17 43  1  0  0  0  0
 19 20  1  0  0  0  0
 20 21  1  0  0  0  0
 20 44  1  0  0  0  0
 20 45  1  0  0  0  0
 21 22  2  0  0  0  0
 21 25  1  0  0  0  0
 22 23  1  0  0  0  0
 23 24  2  0  0  0  0
 24 25  1  0  0  0  0
 24 26  1  0  0  0  0
 26 27  1  0  0  0  0
 26 31  1  0  0  0  0
 26 46  1  0  0  0  0
 27 28  1  0  0  0  0
 27 47  1  0  0  0  0
 27 48  1  0  0  0  0
 28 29  1  0  0  0  0
 28 49  1  0  0  0  0
 28 50  1  0  0  0  0
 29 30  1  0  0  0  0
 29 51  1  0  0  0  0
 29 52  1  0  0  0  0
 30 31  1  0  0  0  0
 30 53  1  0  0  0  0
 30 54  1  0  0  0  0
 31 55  1  0  0  0  0
 31 56  1  0  0  0  0
M  END
$$$$
