
 OpenBabel07202414153D

 50 53  0  0  1  0  0  0  0  0999 V2000
    1.0854    0.0425   -0.4463 C   0  0  0  0  0  0  0  0  0  0  0  0
    2.5799   -0.1369   -0.1780 C   0  0  2  0  0  0  0  0  0  0  0  0
    3.1156   -1.4604   -0.7299 C   0  0  0  0  0  0  0  0  0  0  0  0
    2.6445   -2.6572    0.0871 C   0  0  0  0  0  0  0  0  0  0  0  0
    2.9561   -2.5094    1.5903 C   0  0  2  0  0  0  0  0  0  0  0  0
    2.4178   -3.6826    2.3997 C   0  0  0  0  0  0  0  0  0  0  0  0
    0.9114   -3.7493    2.2931 C   0  0  0  0  0  0  0  0  0  0  0  0
    0.2152   -2.4087    2.5015 C   0  0  0  0  0  0  0  0  0  0  0  0
    1.0209   -1.1792    2.5919 N   0  0  0  0  0  0  0  0  0  0  0  0
    0.5083   -0.0420    3.2654 C   0  0  0  0  0  0  0  0  0  0  0  0
    1.1602    0.9877    3.4255 O   0  0  0  0  0  0  0  0  0  0  0  0
   -0.9018   -0.1782    3.8320 C   0  0  0  0  0  0  0  0  0  0  0  0
   -1.4744    1.0304    4.5378 C   0  0  0  0  0  0  0  0  0  0  0  0
   -2.3234    1.8778    3.8186 C   0  0  0  0  0  0  0  0  0  0  0  0
   -3.0166    2.8978    4.3626 N   0  0  0  0  0  0  0  0  0  0  0  0
   -2.8602    3.0843    5.6901 C   0  0  0  0  0  0  0  0  0  0  0  0
   -2.0211    2.3290    6.5109 C   0  0  0  0  0  0  0  0  0  0  0  0
   -1.9203    2.5813    7.8920 C   0  0  0  0  0  0  0  0  0  0  0  0
   -1.0691    1.8254    8.6928 C   0  0  0  0  0  0  0  0  0  0  0  0
   -0.2946    0.8229    8.1209 C   0  0  0  0  0  0  0  0  0  0  0  0
   -0.3984    0.5564    6.7507 C   0  0  0  0  0  0  0  0  0  0  0  0
   -1.2778    1.2871    5.9166 C   0  0  0  0  0  0  0  0  0  0  0  0
    2.4552   -1.1801    2.2007 C   0  0  2  0  0  0  0  0  0  0  0  0
    2.9322   -0.0096    1.3060 C   0  0  0  0  0  0  0  0  0  0  0  0
    0.8884    0.0467   -1.5228 H   0  0  0  0  0  0  0  0  0  0  0  0
    0.7316    0.9946   -0.0373 H   0  0  0  0  0  0  0  0  0  0  0  0
    0.4807   -0.7556   -0.0097 H   0  0  0  0  0  0  0  0  0  0  0  0
    3.0946    0.6745   -0.7126 H   0  0  0  0  0  0  0  0  0  0  0  0
    4.2130   -1.4355   -0.7217 H   0  0  0  0  0  0  0  0  0  0  0  0
    2.8159   -1.5862   -1.7771 H   0  0  0  0  0  0  0  0  0  0  0  0
    3.1299   -3.5637   -0.2954 H   0  0  0  0  0  0  0  0  0  0  0  0
    1.5726   -2.7884   -0.0886 H   0  0  0  0  0  0  0  0  0  0  0  0
    4.0510   -2.5204    1.6881 H   0  0  0  0  0  0  0  0  0  0  0  0
    2.7052   -3.5699    3.4528 H   0  0  0  0  0  0  0  0  0  0  0  0
    2.8534   -4.6258    2.0527 H   0  0  0  0  0  0  0  0  0  0  0  0
    0.5246   -4.4766    3.0178 H   0  0  0  0  0  0  0  0  0  0  0  0
    0.6175   -4.1534    1.3165 H   0  0  0  0  0  0  0  0  0  0  0  0
   -0.3639   -2.5237    3.4202 H   0  0  0  0  0  0  0  0  0  0  0  0
   -0.5188   -2.2459    1.7034 H   0  0  0  0  0  0  0  0  0  0  0  0
   -0.9050   -0.9952    4.5608 H   0  0  0  0  0  0  0  0  0  0  0  0
   -1.5817   -0.4734    3.0230 H   0  0  0  0  0  0  0  0  0  0  0  0
   -2.4953    1.7323    2.7559 H   0  0  0  0  0  0  0  0  0  0  0  0
   -3.4550    3.8991    6.0942 H   0  0  0  0  0  0  0  0  0  0  0  0
   -2.5120    3.3704    8.3516 H   0  0  0  0  0  0  0  0  0  0  0  0
   -0.9979    2.0281    9.7592 H   0  0  0  0  0  0  0  0  0  0  0  0
    0.3923    0.2465    8.7350 H   0  0  0  0  0  0  0  0  0  0  0  0
    0.2407   -0.2222    6.3400 H   0  0  0  0  0  0  0  0  0  0  0  0
    2.9757   -1.0558    3.1620 H   0  0  0  0  0  0  0  0  0  0  0  0
    4.0302    0.0137    1.3742 H   0  0  0  0  0  0  0  0  0  0  0  0
    2.6110    0.9679    1.6722 H   0  0  0  0  0  0  0  0  0  0  0  0
  1  2  1  0  0  0  0
  1 25  1  0  0  0  0
  1 26  1  0  0  0  0
  1 27  1  0  0  0  0
  2  3  1  0  0  0  0
  2 24  1  0  0  0  0
  2 28  1  6  0  0  0
  3  4  1  0  0  0  0
  3 29  1  0  0  0  0
  3 30  1  0  0  0  0
  4  5  1  0  0  0  0
  4 31  1  0  0  0  0
  4 32  1  0  0  0  0
  5  6  1  0  0  0  0
  5 23  1  0  0  0  0
  5 33  1  1  0  0  0
  6  7  1  0  0  0  0
  6 34  1  0  0  0  0
  6 35  1  0  0  0  0
  7  8  1  0  0  0  0
  7 36  1  0  0  0  0
  7 37  1  0  0  0  0
  8  9  1  0  0  0  0
  8 38  1  0  0  0  0
  8 39  1  0  0  0  0
  9 10  1  0  0  0  0
  9 23  1  0  0  0  0
 10 11  2  0  0  0  0
 10 12  1  0  0  0  0
 12 13  1  0  0  0  0
 12 40  1  0  0  0  0
 12 41  1  0  0  0  0
 13 14  1  0  0  0  0
 13 22  2  0  0  0  0
 14 15  2  0  0  0  0
 14 42  1  0  0  0  0
 15 16  1  0  0  0  0
 16 17  2  0  0  0  0
 16 43  1  0  0  0  0
 17 18  1  0  0  0  0
 17 22  1  0  0  0  0
 18 19  2  0  0  0  0
 18 44  1  0  0  0  0
 19 20  1  0  0  0  0
 19 45  1  0  0  0  0
 20 21  2  0  0  0  0
 20 46  1  0  0  0  0
 21 22  1  0  0  0  0
 21 47  1  0  0  0  0
 23 24  1  0  0  0  0
 23 48  1  1  0  0  0
 24 49  1  0  0  0  0
 24 50  1  0  0  0  0
M  END
$$$$
