
 OpenBabel07202414153D

 48 51  0  0  0  0  0  0  0  0999 V2000
    2.6032   -0.0063   -0.9850 C   0  0  0  0  0  0  0  0  0  0  0  0
    2.1887   -0.3838    0.3237 O   0  0  0  0  0  0  0  0  0  0  0  0
    2.9922    0.0001    1.3623 C   0  0  0  0  0  0  0  0  0  0  0  0
    4.1859    0.7069    1.2445 C   0  0  0  0  0  0  0  0  0  0  0  0
    4.9011    1.0582    2.3937 C   0  0  0  0  0  0  0  0  0  0  0  0
    4.4441    0.6938    3.6697 C   0  0  0  0  0  0  0  0  0  0  0  0
    5.2337    1.1705    4.8381 C   0  0  0  0  0  0  0  0  0  0  0  0
    5.8748    2.2062    4.6806 O   0  0  0  0  0  0  0  0  0  0  0  0
    5.2335    0.3798    5.9753 N   0  0  0  0  0  0  0  0  0  0  0  0
    5.9362    0.7044    7.1708 C   0  0  0  0  0  0  0  0  0  0  0  0
    6.4071    1.9872    7.4462 C   0  0  0  0  0  0  0  0  0  0  0  0
    7.1508    2.2553    8.5972 C   0  0  0  0  0  0  0  0  0  0  0  0
    7.3862    1.2548    9.5341 C   0  0  0  0  0  0  0  0  0  0  0  0
    6.8273   -0.0076    9.3419 C   0  0  0  0  0  0  0  0  0  0  0  0
    6.7522   -1.0010   10.4491 C   0  0  0  0  0  0  0  0  0  0  0  0
    5.7480   -0.8624   11.3592 C   0  0  0  0  0  0  0  0  0  0  0  0
    4.6568   -1.7970   10.9279 C   0  0  0  0  0  0  0  0  0  0  0  0
    4.7583   -3.0162   10.9553 O   0  0  0  0  0  0  0  0  0  0  0  0
    3.6062   -1.1332   10.3194 N   0  0  0  0  0  0  0  0  0  0  0  0
    3.4682    0.2388   10.1674 C   0  0  0  0  0  0  0  0  0  0  0  0
    2.7140    0.7268    9.3352 O   0  0  0  0  0  0  0  0  0  0  0  0
    4.2599    1.0779   11.1023 C   0  0  0  0  0  0  0  0  0  0  0  0
    3.9733    2.4297   11.2973 C   0  0  0  0  0  0  0  0  0  0  0  0
    4.6507    3.1380   12.2930 C   0  0  0  0  0  0  0  0  0  0  0  0
    5.5896    2.4909   13.1014 C   0  0  0  0  0  0  0  0  0  0  0  0
    5.9288    1.1583   12.8537 C   0  0  0  0  0  0  0  0  0  0  0  0
    5.2971    0.4668   11.8141 C   0  0  0  0  0  0  0  0  0  0  0  0
    6.1357   -0.2885    8.1382 C   0  0  0  0  0  0  0  0  0  0  0  0
    3.2444   -0.0105    3.7907 C   0  0  0  0  0  0  0  0  0  0  0  0
    2.5304   -0.3550    2.6353 C   0  0  0  0  0  0  0  0  0  0  0  0
    1.8341   -0.3357   -1.6900 H   0  0  0  0  0  0  0  0  0  0  0  0
    3.5412   -0.5022   -1.2575 H   0  0  0  0  0  0  0  0  0  0  0  0
    2.6913    1.0817   -1.0782 H   0  0  0  0  0  0  0  0  0  0  0  0
    4.5811    1.0219    0.2860 H   0  0  0  0  0  0  0  0  0  0  0  0
    5.8190    1.6370    2.2894 H   0  0  0  0  0  0  0  0  0  0  0  0
    4.8333   -0.5416    5.9158 H   0  0  0  0  0  0  0  0  0  0  0  0
    6.1888    2.8202    6.7857 H   0  0  0  0  0  0  0  0  0  0  0  0
    7.5129    3.2651    8.7696 H   0  0  0  0  0  0  0  0  0  0  0  0
    7.9310    1.4935   10.4427 H   0  0  0  0  0  0  0  0  0  0  0  0
    7.0159   -2.0019   10.0989 H   0  0  0  0  0  0  0  0  0  0  0  0
    2.9923   -1.7067    9.7616 H   0  0  0  0  0  0  0  0  0  0  0  0
    3.2289    2.9282   10.6815 H   0  0  0  0  0  0  0  0  0  0  0  0
    4.4358    4.1930   12.4500 H   0  0  0  0  0  0  0  0  0  0  0  0
    6.0765    3.0361   13.9079 H   0  0  0  0  0  0  0  0  0  0  0  0
    6.6879    0.6751   13.4652 H   0  0  0  0  0  0  0  0  0  0  0  0
    5.7117   -1.2819    7.9875 H   0  0  0  0  0  0  0  0  0  0  0  0
    2.8283   -0.2575    4.7615 H   0  0  0  0  0  0  0  0  0  0  0  0
    1.5863   -0.8922    2.7245 H   0  0  0  0  0  0  0  0  0  0  0  0
  1  2  1  0  0  0  0
  1 31  1  0  0  0  0
  1 32  1  0  0  0  0
  1 33  1  0  0  0  0
  2  3  1  0  0  0  0
  3  4  1  0  0  0  0
  3 30  2  0  0  0  0
  4  5  2  0  0  0  0
  4 34  1  0  0  0  0
  5  6  1  0  0  0  0
  5 35  1  0  0  0  0
  6  7  1  0  0  0  0
  6 29  2  0  0  0  0
  7  8  2  0  0  0  0
  7  9  1  0  0  0  0
  9 10  1  0  0  0  0
  9 36  1  0  0  0  0
 10 11  1  0  0  0  0
 10 28  2  0  0  0  0
 11 12  2  0  0  0  0
 11 37  1  0  0  0  0
 12 13  1  0  0  0  0
 12 38  1  0  0  0  0
 13 14  2  0  0  0  0
 13 39  1  0  0  0  0
 14 15  1  0  0  0  0
 14 28  1  0  0  0  0
 15 16  2  0  0  0  0
 15 40  1  0  0  0  0
 16 17  1  0  0  0  0
 16 27  1  0  0  0  0
 17 18  2  0  0  0  0
 17 19  1  0  0  0  0
 19 20  1  0  0  0  0
 19 41  1  0  0  0  0
 20 21  2  0  0  0  0
 20 22  1  0  0  0  0
 22 23  1  0  0  0  0
 22 27  2  0  0  0  0
 23 24  2  0  0  0  0
 23 42  1  0  0  0  0
 24 25  1  0  0  0  0
 24 43  1  0  0  0  0
 25 26  2  0  0  0  0
 25 44  1  0  0  0  0
 26 27  1  0  0  0  0
 26 45  1  0  0  0  0
 28 46  1  0  0  0  0
 29 30  1  0  0  0  0
 29 47  1  0  0  0  0
 30 48  1  0  0  0  0
M  END
$$$$
