
 OpenBabel07202414133D

 51 54  0  0  1  0  0  0  0  0999 V2000
    5.7880   -1.0551    3.0609 C   0  0  0  0  0  0  0  0  0  0  0  0
    5.1695   -0.6055    1.7487 C   0  0  0  0  0  0  0  0  0  0  0  0
    5.4051   -1.6597    0.7310 N   0  0  0  0  0  0  0  0  0  0  0  0
    4.7577   -1.2852   -0.7714 S   0  0  0  0  0  0  0  0  0  0  0  0
    3.3212   -1.2973   -0.6070 O   0  0  0  0  0  0  0  0  0  0  0  0
    5.4551   -0.1614   -1.3347 O   0  0  0  0  0  0  0  0  0  0  0  0
    5.1645   -2.6846   -1.6332 N   0  0  0  0  0  0  0  0  0  0  0  0
    4.6871   -3.9832   -1.0636 C   0  0  0  0  0  0  0  0  0  0  0  0
    4.8422   -5.1406   -2.0565 C   0  0  3  0  0  0  0  0  0  0  0  0
    3.7185   -5.2104   -3.1122 C   0  0  0  0  0  0  0  0  0  0  0  0
    3.3695   -6.3079   -3.5573 O   0  0  0  0  0  0  0  0  0  0  0  0
    3.2038   -3.9941   -3.5022 N   0  0  0  0  0  0  0  0  0  0  0  0
    2.2452   -3.7329   -4.5165 C   0  0  0  0  0  0  0  0  0  0  0  0
    1.6892   -4.7321   -5.3134 C   0  0  0  0  0  0  0  0  0  0  0  0
    0.9960   -4.4985   -6.4527 N   0  0  0  0  0  0  0  0  0  0  0  0
    0.7687   -3.2069   -6.7666 C   0  0  0  0  0  0  0  0  0  0  0  0
    1.0870   -2.1301   -5.9427 C   0  0  0  0  0  0  0  0  0  0  0  0
    0.6369   -0.8271   -6.2321 C   0  0  0  0  0  0  0  0  0  0  0  0
    0.9401    0.2359   -5.3847 C   0  0  0  0  0  0  0  0  0  0  0  0
    1.7268    0.0149   -4.2645 C   0  0  0  0  0  0  0  0  0  0  0  0
    2.1816   -1.2746   -3.9761 C   0  0  0  0  0  0  0  0  0  0  0  0
    1.8621   -2.3886   -4.7912 C   0  0  0  0  0  0  0  0  0  0  0  0
    6.2285   -5.1802   -2.6509 C   0  0  0  0  0  0  0  0  0  0  0  0
    6.7462   -6.3882   -3.1390 C   0  0  0  0  0  0  0  0  0  0  0  0
    8.0286   -6.4362   -3.6837 C   0  0  0  0  0  0  0  0  0  0  0  0
    8.6653   -7.9303   -4.2486 Cl  0  0  0  0  0  0  0  0  0  0  0  0
    8.8044   -5.2841   -3.7633 C   0  0  0  0  0  0  0  0  0  0  0  0
    8.3053   -4.0800   -3.2661 C   0  0  0  0  0  0  0  0  0  0  0  0
    7.0254   -4.0191   -2.6896 C   0  0  0  0  0  0  0  0  0  0  0  0
    6.5872   -2.7161   -2.0530 C   0  0  0  0  0  0  0  0  0  0  0  0
    5.5626   -0.3351    3.8520 H   0  0  0  0  0  0  0  0  0  0  0  0
    6.8756   -1.1430    2.9695 H   0  0  0  0  0  0  0  0  0  0  0  0
    5.3994   -2.0306    3.3670 H   0  0  0  0  0  0  0  0  0  0  0  0
    5.6044    0.3436    1.4300 H   0  0  0  0  0  0  0  0  0  0  0  0
    4.0899   -0.4845    1.8932 H   0  0  0  0  0  0  0  0  0  0  0  0
    4.9640   -2.5131    1.0645 H   0  0  0  0  0  0  0  0  0  0  0  0
    3.6401   -3.8882   -0.7508 H   0  0  0  0  0  0  0  0  0  0  0  0
    5.2835   -4.2118   -0.1704 H   0  0  0  0  0  0  0  0  0  0  0  0
    4.7011   -6.0482   -1.4501 H   0  0  0  0  0  0  0  0  0  0  0  0
    3.6694   -3.1764   -3.1204 H   0  0  0  0  0  0  0  0  0  0  0  0
    1.7929   -5.7867   -5.0851 H   0  0  0  0  0  0  0  0  0  0  0  0
    0.2965   -3.0567   -7.7340 H   0  0  0  0  0  0  0  0  0  0  0  0
    0.0089   -0.6419   -7.1013 H   0  0  0  0  0  0  0  0  0  0  0  0
    0.5534    1.2301   -5.5904 H   0  0  0  0  0  0  0  0  0  0  0  0
    1.9758    0.8352   -3.5953 H   0  0  0  0  0  0  0  0  0  0  0  0
    2.7516   -1.3945   -3.0632 H   0  0  0  0  0  0  0  0  0  0  0  0
    6.1517   -7.2992   -3.0852 H   0  0  0  0  0  0  0  0  0  0  0  0
    9.7982   -5.3165   -4.1996 H   0  0  0  0  0  0  0  0  0  0  0  0
    8.9305   -3.1905   -3.3122 H   0  0  0  0  0  0  0  0  0  0  0  0
    6.7489   -1.9173   -2.7878 H   0  0  0  0  0  0  0  0  0  0  0  0
    7.2344   -2.5414   -1.1839 H   0  0  0  0  0  0  0  0  0  0  0  0
  1  2  1  0  0  0  0
  1 31  1  0  0  0  0
  1 32  1  0  0  0  0
  1 33  1  0  0  0  0
  2  3  1  0  0  0  0
  2 34  1  0  0  0  0
  2 35  1  0  0  0  0
  3  4  1  0  0  0  0
  3 36  1  0  0  0  0
  4  5  2  0  0  0  0
  4  6  2  0  0  0  0
  4  7  1  0  0  0  0
  7  8  1  0  0  0  0
  7 30  1  0  0  0  0
  8  9  1  0  0  0  0
  8 37  1  0  0  0  0
  8 38  1  0  0  0  0
  9 10  1  0  0  0  0
  9 23  1  0  0  0  0
  9 39  1  0  0  0  0
 10 11  2  0  0  0  0
 10 12  1  0  0  0  0
 12 13  1  0  0  0  0
 12 40  1  0  0  0  0
 13 14  1  0  0  0  0
 13 22  2  0  0  0  0
 14 15  2  0  0  0  0
 14 41  1  0  0  0  0
 15 16  1  0  0  0  0
 16 17  2  0  0  0  0
 16 42  1  0  0  0  0
 17 18  1  0  0  0  0
 17 22  1  0  0  0  0
 18 19  2  0  0  0  0
 18 43  1  0  0  0  0
 19 20  1  0  0  0  0
 19 44  1  0  0  0  0
 20 21  2  0  0  0  0
 20 45  1  0  0  0  0
 21 22  1  0  0  0  0
 21 46  1  0  0  0  0
 23 24  1  0  0  0  0
 23 29  2  0  0  0  0
 24 25  2  0  0  0  0
 24 47  1  0  0  0  0
 25 26  1  0  0  0  0
 25 27  1  0  0  0  0
 27 28  2  0  0  0  0
 27 48  1  0  0  0  0
 28 29  1  0  0  0  0
 28 49  1  0  0  0  0
 29 30  1  0  0  0  0
 30 50  1  0  0  0  0
 30 51  1  0  0  0  0
M  END
$$$$
