
 OpenBabel07202414193D

 37 40  0  0  0  0  0  0  0  0999 V2000
    1.0695    0.1743    0.1819 O   0  0  0  0  0  0  0  0  0  0  0  0
    2.2954    0.1067    0.1359 C   0  0  0  0  0  0  0  0  0  0  0  0
    3.0431    1.1311   -0.4044 N   0  0  0  0  0  0  0  0  0  0  0  0
    2.3583    2.2577   -0.9914 C   0  0  0  0  0  0  0  0  0  0  0  0
    3.3365    3.2752   -1.4587 C   0  0  0  0  0  0  0  0  0  0  0  0
    4.6550    3.2203   -1.4099 N   0  0  0  0  0  0  0  0  0  0  0  0
    5.0895    4.4040   -1.9608 C   0  0  0  0  0  0  0  0  0  0  0  0
    6.3953    4.8811   -2.1532 C   0  0  0  0  0  0  0  0  0  0  0  0
    6.5714    6.1387   -2.7477 C   0  0  0  0  0  0  0  0  0  0  0  0
    5.4718    6.9036   -3.1461 C   0  0  0  0  0  0  0  0  0  0  0  0
    4.1629    6.4445   -2.9622 C   0  0  0  0  0  0  0  0  0  0  0  0
    4.0181    5.1913   -2.3639 C   0  0  0  0  0  0  0  0  0  0  0  0
    2.9144    4.4517   -2.0312 N   0  0  0  0  0  0  0  0  0  0  0  0
    3.0109   -1.0822    0.6719 C   0  0  0  0  0  0  0  0  0  0  0  0
    4.2463   -0.9046    1.2885 C   0  0  0  0  0  0  0  0  0  0  0  0
    4.9546   -1.8943    1.8789 N   0  0  0  0  0  0  0  0  0  0  0  0
    4.3873   -3.1210    1.8768 C   0  0  0  0  0  0  0  0  0  0  0  0
    3.1526   -3.4275    1.3009 C   0  0  0  0  0  0  0  0  0  0  0  0
    2.6273   -4.7331    1.3554 C   0  0  0  0  0  0  0  0  0  0  0  0
    1.3978   -5.0337    0.7730 C   0  0  0  0  0  0  0  0  0  0  0  0
    0.6878   -4.0368    0.1197 C   0  0  0  0  0  0  0  0  0  0  0  0
    1.2012   -2.7381    0.0617 C   0  0  0  0  0  0  0  0  0  0  0  0
    2.4376   -2.3864    0.6634 C   0  0  0  0  0  0  0  0  0  0  0  0
    4.0483    1.0883   -0.5366 H   0  0  0  0  0  0  0  0  0  0  0  0
    1.6839    2.6882   -0.2430 H   0  0  0  0  0  0  0  0  0  0  0  0
    1.7574    1.8922   -1.8318 H   0  0  0  0  0  0  0  0  0  0  0  0
    7.2453    4.2842   -1.8430 H   0  0  0  0  0  0  0  0  0  0  0  0
    7.5777    6.5218   -2.8997 H   0  0  0  0  0  0  0  0  0  0  0  0
    5.6362    7.8758   -3.6069 H   0  0  0  0  0  0  0  0  0  0  0  0
    3.3099    7.0389   -3.2709 H   0  0  0  0  0  0  0  0  0  0  0  0
    1.9540    4.7270   -2.1787 H   0  0  0  0  0  0  0  0  0  0  0  0
    4.7163    0.0725    1.3607 H   0  0  0  0  0  0  0  0  0  0  0  0
    4.9776   -3.8862    2.3767 H   0  0  0  0  0  0  0  0  0  0  0  0
    3.1732   -5.5276    1.8607 H   0  0  0  0  0  0  0  0  0  0  0  0
    0.9964   -6.0424    0.8279 H   0  0  0  0  0  0  0  0  0  0  0  0
   -0.2708   -4.2594   -0.3427 H   0  0  0  0  0  0  0  0  0  0  0  0
    0.6077   -1.9938   -0.4657 H   0  0  0  0  0  0  0  0  0  0  0  0
  1  2  2  0  0  0  0
  2  3  1  0  0  0  0
  2 14  1  0  0  0  0
  3  4  1  0  0  0  0
  3 24  1  0  0  0  0
  4  5  1  0  0  0  0
  4 25  1  0  0  0  0
  4 26  1  0  0  0  0
  5  6  2  0  0  0  0
  5 13  1  0  0  0  0
  6  7  1  0  0  0  0
  7  8  1  0  0  0  0
  7 12  2  0  0  0  0
  8  9  2  0  0  0  0
  8 27  1  0  0  0  0
  9 10  1  0  0  0  0
  9 28  1  0  0  0  0
 10 11  2  0  0  0  0
 10 29  1  0  0  0  0
 11 12  1  0  0  0  0
 11 30  1  0  0  0  0
 12 13  1  0  0  0  0
 13 31  1  0  0  0  0
 14 15  1  0  0  0  0
 14 23  2  0  0  0  0
 15 16  2  0  0  0  0
 15 32  1  0  0  0  0
 16 17  1  0  0  0  0
 17 18  2  0  0  0  0
 17 33  1  0  0  0  0
 18 19  1  0  0  0  0
 18 23  1  0  0  0  0
 19 20  2  0  0  0  0
 19 34  1  0  0  0  0
 20 21  1  0  0  0  0
 20 35  1  0  0  0  0
 21 22  2  0  0  0  0
 21 36  1  0  0  0  0
 22 23  1  0  0  0  0
 22 37  1  0  0  0  0
M  END
$$$$
