
 OpenBabel07202414173D

 64 68  0  0  1  0  0  0  0  0999 V2000
    4.5379  -10.9314   -2.8450 Cl  0  0  0  0  0  0  0  0  0  0  0  0
    4.1330   -9.2823   -3.1078 C   0  0  0  0  0  0  0  0  0  0  0  0
    3.6731   -8.8634   -4.3544 C   0  0  0  0  0  0  0  0  0  0  0  0
    3.3818   -7.5099   -4.5710 C   0  0  0  0  0  0  0  0  0  0  0  0
    2.8749   -7.0172   -5.9072 C   0  0  0  0  0  0  0  0  0  0  0  0
    3.7954   -7.2521   -7.0903 C   0  0  0  0  0  0  0  0  0  0  0  0
    3.3500   -7.6739   -8.1552 O   0  0  0  0  0  0  0  0  0  0  0  0
    5.1206   -6.9172   -6.8712 N   0  0  0  0  0  0  0  0  0  0  0  0
    6.1150   -7.0514   -7.8690 C   0  0  0  0  0  0  0  0  0  0  0  0
    5.8785   -6.6370   -9.1827 C   0  0  0  0  0  0  0  0  0  0  0  0
    6.7918   -6.6873  -10.1780 N   0  0  0  0  0  0  0  0  0  0  0  0
    7.9924   -7.2157   -9.8584 C   0  0  0  0  0  0  0  0  0  0  0  0
    8.3352   -7.6935   -8.5914 C   0  0  0  0  0  0  0  0  0  0  0  0
    9.5943   -8.2815   -8.3500 C   0  0  0  0  0  0  0  0  0  0  0  0
    9.9088   -8.7942   -7.0953 C   0  0  0  0  0  0  0  0  0  0  0  0
    8.9841   -8.7140   -6.0632 C   0  0  0  0  0  0  0  0  0  0  0  0
    7.7387   -8.1173   -6.2879 C   0  0  0  0  0  0  0  0  0  0  0  0
    7.3853   -7.5942   -7.5545 C   0  0  0  0  0  0  0  0  0  0  0  0
    3.5392   -6.6019   -3.5097 C   0  0  0  0  0  0  0  0  0  0  0  0
    3.9523   -7.0166   -2.2365 C   0  0  0  0  0  0  0  0  0  0  0  0
    4.1966   -6.1488   -1.1824 N   0  0  0  0  0  0  0  0  0  0  0  0
    3.4593   -4.8846   -1.0389 C   0  0  0  0  0  0  0  0  0  0  0  0
    4.2862   -3.7698   -0.3222 C   0  0  2  0  0  0  0  0  0  0  0  0
    5.2421   -3.0811   -1.2282 N   0  0  0  0  0  0  0  0  0  0  0  0
    6.4411   -3.7855   -1.7035 C   0  0  0  0  0  0  0  0  0  0  0  0
    7.7161   -3.6088   -0.8489 C   0  0  0  0  0  0  0  0  0  0  0  0
    7.9551   -2.2506   -0.4633 O   0  0  0  0  0  0  0  0  0  0  0  0
    6.7964   -1.6574    0.1333 C   0  0  0  0  0  0  0  0  0  0  0  0
    5.6078   -1.7129   -0.8312 C   0  0  0  0  0  0  0  0  0  0  0  0
    4.7737   -4.1611    1.0652 C   0  0  0  0  0  0  0  0  0  0  0  0
    5.7747   -5.1063    1.3116 C   0  0  0  0  0  0  0  0  0  0  0  0
    6.3009   -5.2602    2.5928 C   0  0  0  0  0  0  0  0  0  0  0  0
    5.7502   -4.5170    3.6181 C   0  0  0  0  0  0  0  0  0  0  0  0
    4.7006   -3.6881    3.4523 N   0  0  0  0  0  0  0  0  0  0  0  0
    4.2386   -3.5333    2.1893 C   0  0  0  0  0  0  0  0  0  0  0  0
    4.2899   -8.3671   -2.0653 C   0  0  0  0  0  0  0  0  0  0  0  0
    3.5438   -9.5915   -5.1506 H   0  0  0  0  0  0  0  0  0  0  0  0
    2.6741   -5.9406   -5.8727 H   0  0  0  0  0  0  0  0  0  0  0  0
    1.9177   -7.5122   -6.1099 H   0  0  0  0  0  0  0  0  0  0  0  0
    5.4302   -6.8921   -5.9086 H   0  0  0  0  0  0  0  0  0  0  0  0
    4.9267   -6.2012   -9.4755 H   0  0  0  0  0  0  0  0  0  0  0  0
    8.6922   -7.2630  -10.6901 H   0  0  0  0  0  0  0  0  0  0  0  0
   10.3250   -8.3683   -9.1518 H   0  0  0  0  0  0  0  0  0  0  0  0
   10.8686   -9.2733   -6.9263 H   0  0  0  0  0  0  0  0  0  0  0  0
    9.2120   -9.1323   -5.0885 H   0  0  0  0  0  0  0  0  0  0  0  0
    7.0340   -8.1101   -5.4596 H   0  0  0  0  0  0  0  0  0  0  0  0
    3.3386   -5.5520   -3.7032 H   0  0  0  0  0  0  0  0  0  0  0  0
    4.2212   -6.6375   -0.2888 H   0  0  0  0  0  0  0  0  0  0  0  0
    2.5518   -5.0870   -0.4538 H   0  0  0  0  0  0  0  0  0  0  0  0
    3.1158   -4.4741   -1.9943 H   0  0  0  0  0  0  0  0  0  0  0  0
    3.5115   -3.0068   -0.1507 H   0  0  0  0  0  0  0  0  0  0  0  0
    6.6736   -3.3420   -2.6827 H   0  0  0  0  0  0  0  0  0  0  0  0
    6.2613   -4.8416   -1.9179 H   0  0  0  0  0  0  0  0  0  0  0  0
    8.5837   -3.9333   -1.4328 H   0  0  0  0  0  0  0  0  0  0  0  0
    7.7175   -4.2260    0.0476 H   0  0  0  0  0  0  0  0  0  0  0  0
    7.0409   -0.6124    0.3465 H   0  0  0  0  0  0  0  0  0  0  0  0
    6.5796   -2.1355    1.0932 H   0  0  0  0  0  0  0  0  0  0  0  0
    5.9002   -1.1843   -1.7500 H   0  0  0  0  0  0  0  0  0  0  0  0
    4.7464   -1.1651   -0.4355 H   0  0  0  0  0  0  0  0  0  0  0  0
    6.2028   -5.6901    0.5010 H   0  0  0  0  0  0  0  0  0  0  0  0
    7.1427   -5.9194    2.7767 H   0  0  0  0  0  0  0  0  0  0  0  0
    6.1522   -4.5656    4.6264 H   0  0  0  0  0  0  0  0  0  0  0  0
    3.4021   -2.8440    2.1093 H   0  0  0  0  0  0  0  0  0  0  0  0
    4.6690   -8.7121   -1.1053 H   0  0  0  0  0  0  0  0  0  0  0  0
  1  2  1  0  0  0  0
  2  3  1  0  0  0  0
  2 36  2  0  0  0  0
  3  4  2  0  0  0  0
  3 37  1  0  0  0  0
  4  5  1  0  0  0  0
  4 19  1  0  0  0  0
  5  6  1  0  0  0  0
  5 38  1  0  0  0  0
  5 39  1  0  0  0  0
  6  7  2  0  0  0  0
  6  8  1  0  0  0  0
  8  9  1  0  0  0  0
  8 40  1  0  0  0  0
  9 10  1  0  0  0  0
  9 18  2  0  0  0  0
 10 11  2  0  0  0  0
 10 41  1  0  0  0  0
 11 12  1  0  0  0  0
 12 13  2  0  0  0  0
 12 42  1  0  0  0  0
 13 14  1  0  0  0  0
 13 18  1  0  0  0  0
 14 15  2  0  0  0  0
 14 43  1  0  0  0  0
 15 16  1  0  0  0  0
 15 44  1  0  0  0  0
 16 17  2  0  0  0  0
 16 45  1  0  0  0  0
 17 18  1  0  0  0  0
 17 46  1  0  0  0  0
 19 20  2  0  0  0  0
 19 47  1  0  0  0  0
 20 21  1  0  0  0  0
 20 36  1  0  0  0  0
 21 22  1  0  0  0  0
 21 48  1  0  0  0  0
 22 49  1  0  0  0  0
 22 50  1  0  0  0  0
 23 30  1  0  0  0  0
 23 24  1  0  0  0  0
 23 22  1  0  0  0  0
 23 51  1  1  0  0  0
 24 25  1  0  0  0  0
 24 29  1  0  0  0  0
 25 26  1  0  0  0  0
 25 52  1  0  0  0  0
 25 53  1  0  0  0  0
 26 27  1  0  0  0  0
 26 54  1  0  0  0  0
 26 55  1  0  0  0  0
 27 28  1  0  0  0  0
 28 29  1  0  0  0  0
 28 56  1  0  0  0  0
 28 57  1  0  0  0  0
 29 58  1  0  0  0  0
 29 59  1  0  0  0  0
 30 31  1  0  0  0  0
 30 35  2  0  0  0  0
 31 32  2  0  0  0  0
 31 60  1  0  0  0  0
 32 33  1  0  0  0  0
 32 61  1  0  0  0  0
 33 34  2  0  0  0  0
 33 62  1  0  0  0  0
 34 35  1  0  0  0  0
 35 63  1  0  0  0  0
 36 64  1  0  0  0  0
M  END
$$$$
