
 OpenBabel07202414183D

 37 39  0  0  0  0  0  0  0  0999 V2000
   10.1107   -0.1292    1.3587 F   0  0  0  0  0  0  0  0  0  0  0  0
    9.4966    0.4772    0.3069 C   0  0  0  0  0  0  0  0  0  0  0  0
   10.4888    1.0789   -0.4080 F   0  0  0  0  0  0  0  0  0  0  0  0
    9.0275   -0.5289   -0.4828 F   0  0  0  0  0  0  0  0  0  0  0  0
    8.4118    1.4470    0.7125 C   0  0  0  0  0  0  0  0  0  0  0  0
    8.0523    1.5889    2.0593 C   0  0  0  0  0  0  0  0  0  0  0  0
    7.0344    2.4632    2.4296 C   0  0  0  0  0  0  0  0  0  0  0  0
    6.3756    3.2202    1.4613 C   0  0  0  0  0  0  0  0  0  0  0  0
    6.7353    3.1244    0.1098 C   0  0  0  0  0  0  0  0  0  0  0  0
    6.0343    3.9799   -0.9206 C   0  0  0  0  0  0  0  0  0  0  0  0
    6.1509    5.4729   -0.6225 C   0  0  0  0  0  0  0  0  0  0  0  0
    5.2501    6.0678   -0.0400 O   0  0  0  0  0  0  0  0  0  0  0  0
    7.3556    6.0139   -1.0415 N   0  0  0  0  0  0  0  0  0  0  0  0
    7.8151    7.3426   -0.8190 C   0  0  0  0  0  0  0  0  0  0  0  0
    6.9957    8.3427   -0.2975 C   0  0  0  0  0  0  0  0  0  0  0  0
    7.4093    9.5921    0.0257 N   0  0  0  0  0  0  0  0  0  0  0  0
    8.6941    9.8841   -0.2464 C   0  0  0  0  0  0  0  0  0  0  0  0
    9.5846    9.0211   -0.8742 C   0  0  0  0  0  0  0  0  0  0  0  0
   10.8677    9.4581   -1.2537 C   0  0  0  0  0  0  0  0  0  0  0  0
   11.7565    8.5968   -1.8887 C   0  0  0  0  0  0  0  0  0  0  0  0
   11.3949    7.2729   -2.0961 C   0  0  0  0  0  0  0  0  0  0  0  0
   10.1238    6.8264   -1.7201 C   0  0  0  0  0  0  0  0  0  0  0  0
    9.1617    7.6939   -1.1428 C   0  0  0  0  0  0  0  0  0  0  0  0
    7.7431    2.2174   -0.2588 C   0  0  0  0  0  0  0  0  0  0  0  0
    8.5611    1.0117    2.8300 H   0  0  0  0  0  0  0  0  0  0  0  0
    6.7520    2.5604    3.4755 H   0  0  0  0  0  0  0  0  0  0  0  0
    5.5799    3.8968    1.7734 H   0  0  0  0  0  0  0  0  0  0  0  0
    4.9694    3.7145   -0.9496 H   0  0  0  0  0  0  0  0  0  0  0  0
    6.4259    3.7878   -1.9262 H   0  0  0  0  0  0  0  0  0  0  0  0
    8.0206    5.3645   -1.4306 H   0  0  0  0  0  0  0  0  0  0  0  0
    5.9360    8.1942   -0.1194 H   0  0  0  0  0  0  0  0  0  0  0  0
    8.9979   10.8828    0.0609 H   0  0  0  0  0  0  0  0  0  0  0  0
   11.1710   10.4914   -1.0791 H   0  0  0  0  0  0  0  0  0  0  0  0
   12.7270    8.9562   -2.2136 H   0  0  0  0  0  0  0  0  0  0  0  0
   12.0952    6.5862   -2.5630 H   0  0  0  0  0  0  0  0  0  0  0  0
    9.9025    5.7790   -1.9055 H   0  0  0  0  0  0  0  0  0  0  0  0
    8.0145    2.0995   -1.3077 H   0  0  0  0  0  0  0  0  0  0  0  0
  1  2  1  0  0  0  0
  2  3  1  0  0  0  0
  2  4  1  0  0  0  0
  2  5  1  0  0  0  0
  5  6  1  0  0  0  0
  5 24  2  0  0  0  0
  6  7  2  0  0  0  0
  6 25  1  0  0  0  0
  7  8  1  0  0  0  0
  7 26  1  0  0  0  0
  8  9  2  0  0  0  0
  8 27  1  0  0  0  0
  9 10  1  0  0  0  0
  9 24  1  0  0  0  0
 10 11  1  0  0  0  0
 10 28  1  0  0  0  0
 10 29  1  0  0  0  0
 11 12  2  0  0  0  0
 11 13  1  0  0  0  0
 13 14  1  0  0  0  0
 13 30  1  0  0  0  0
 14 15  1  0  0  0  0
 14 23  2  0  0  0  0
 15 16  2  0  0  0  0
 15 31  1  0  0  0  0
 16 17  1  0  0  0  0
 17 18  2  0  0  0  0
 17 32  1  0  0  0  0
 18 19  1  0  0  0  0
 18 23  1  0  0  0  0
 19 20  2  0  0  0  0
 19 33  1  0  0  0  0
 20 21  1  0  0  0  0
 20 34  1  0  0  0  0
 21 22  2  0  0  0  0
 21 35  1  0  0  0  0
 22 23  1  0  0  0  0
 22 36  1  0  0  0  0
 24 37  1  0  0  0  0
M  END
$$$$
