
 OpenBabel07202414183D

 69 72  0  0  1  0  0  0  0  0999 V2000
    0.7503   -1.6002   -1.9169 C   0  0  0  0  0  0  0  0  0  0  0  0
    0.2207   -0.3969   -1.3222 N   0  0  0  0  0  0  0  0  0  0  0  0
    1.0126    0.4392   -0.6275 N   0  0  0  0  0  0  0  0  0  0  0  0
    0.1196    1.3320   -0.1867 C   0  0  0  0  0  0  0  0  0  0  0  0
   -1.1929    0.9690   -0.5766 C   0  0  0  0  0  0  0  0  0  0  0  0
   -2.4184    1.7183   -0.3103 C   0  0  0  0  0  0  0  0  0  0  0  0
   -2.3289    2.9408   -0.1843 O   0  0  0  0  0  0  0  0  0  0  0  0
   -3.6661    1.0593   -0.1842 N   0  0  0  0  0  0  0  0  0  0  0  0
   -3.9275   -0.4161   -0.0956 C   0  0  3  0  0  0  0  0  0  0  0  0
   -3.7910   -1.2394   -1.4221 C   0  0  0  0  0  0  0  0  0  0  0  0
   -3.0034   -2.1737   -1.5838 O   0  0  0  0  0  0  0  0  0  0  0  0
   -4.7338   -0.9526   -2.4018 N   0  0  0  0  0  0  0  0  0  0  0  0
   -4.6430   -1.6213   -3.6921 C   0  0  0  0  0  0  0  0  0  0  0  0
   -5.9258   -1.5308   -4.5128 C   0  0  0  0  0  0  0  0  0  0  0  0
   -5.7739   -2.1622   -5.8777 C   0  0  0  0  0  0  0  0  0  0  0  0
   -5.3208   -1.4011   -6.9670 C   0  0  0  0  0  0  0  0  0  0  0  0
   -5.1884   -1.9756   -8.2356 C   0  0  0  0  0  0  0  0  0  0  0  0
   -5.5028   -3.3197   -8.4262 C   0  0  0  0  0  0  0  0  0  0  0  0
   -5.9319   -4.0803   -7.3469 C   0  0  0  0  0  0  0  0  0  0  0  0
   -6.2262   -5.3748   -7.5273 F   0  0  0  0  0  0  0  0  0  0  0  0
   -6.0650   -3.5186   -6.0779 C   0  0  0  0  0  0  0  0  0  0  0  0
   -3.4350   -1.1564    1.1465 C   0  0  0  0  0  0  0  0  0  0  0  0
   -2.2447   -1.8900    1.1880 C   0  0  0  0  0  0  0  0  0  0  0  0
   -1.9915   -2.7774    2.2305 C   0  0  0  0  0  0  0  0  0  0  0  0
   -2.9262   -2.8842    3.2407 C   0  0  0  0  0  0  0  0  0  0  0  0
   -4.0525   -2.1464    3.2892 N   0  0  0  0  0  0  0  0  0  0  0  0
   -4.2783   -1.3112    2.2476 C   0  0  0  0  0  0  0  0  0  0  0  0
   -4.8337    1.8989   -0.1529 C   0  0  0  0  0  0  0  0  0  0  0  0
   -5.1416    2.7058   -1.2496 C   0  0  0  0  0  0  0  0  0  0  0  0
   -6.3338    3.4466   -1.2808 C   0  0  0  0  0  0  0  0  0  0  0  0
   -7.2441    3.4306   -0.2100 C   0  0  0  0  0  0  0  0  0  0  0  0
   -8.5716    4.2182   -0.2303 C   0  0  0  0  0  0  0  0  0  0  0  0
   -8.7807    5.0376   -1.5251 C   0  0  0  0  0  0  0  0  0  0  0  0
   -9.7638    3.2430   -0.1132 C   0  0  0  0  0  0  0  0  0  0  0  0
   -8.6310    5.2143    0.9486 C   0  0  0  0  0  0  0  0  0  0  0  0
   -6.8893    2.6546    0.9089 C   0  0  0  0  0  0  0  0  0  0  0  0
   -5.7050    1.9014    0.9372 C   0  0  0  0  0  0  0  0  0  0  0  0
   -1.0959   -0.1158   -1.3646 N   0  0  0  0  0  0  0  0  0  0  0  0
    1.7043   -1.3659   -2.3962 H   0  0  0  0  0  0  0  0  0  0  0  0
    0.0439   -1.9773   -2.6597 H   0  0  0  0  0  0  0  0  0  0  0  0
    0.8949   -2.3384   -1.1233 H   0  0  0  0  0  0  0  0  0  0  0  0
    0.4486    2.1875    0.3911 H   0  0  0  0  0  0  0  0  0  0  0  0
   -5.0209   -0.4814    0.0284 H   0  0  0  0  0  0  0  0  0  0  0  0
   -5.3974   -0.2027   -2.2594 H   0  0  0  0  0  0  0  0  0  0  0  0
   -4.3814   -2.6740   -3.5268 H   0  0  0  0  0  0  0  0  0  0  0  0
   -3.8024   -1.1616   -4.2247 H   0  0  0  0  0  0  0  0  0  0  0  0
   -6.2265   -0.4815   -4.6287 H   0  0  0  0  0  0  0  0  0  0  0  0
   -6.7508   -2.0156   -3.9748 H   0  0  0  0  0  0  0  0  0  0  0  0
   -5.0711   -0.3499   -6.8367 H   0  0  0  0  0  0  0  0  0  0  0  0
   -4.8436   -1.3739   -9.0727 H   0  0  0  0  0  0  0  0  0  0  0  0
   -5.4114   -3.7786   -9.4069 H   0  0  0  0  0  0  0  0  0  0  0  0
   -6.3986   -4.1509   -5.2604 H   0  0  0  0  0  0  0  0  0  0  0  0
   -1.5415   -1.8684    0.3641 H   0  0  0  0  0  0  0  0  0  0  0  0
   -1.1073   -3.4046    2.2200 H   0  0  0  0  0  0  0  0  0  0  0  0
   -2.8001   -3.6007    4.0466 H   0  0  0  0  0  0  0  0  0  0  0  0
   -5.2351   -0.8019    2.3120 H   0  0  0  0  0  0  0  0  0  0  0  0
   -4.4716    2.7531   -2.1052 H   0  0  0  0  0  0  0  0  0  0  0  0
   -6.5249    4.0355   -2.1738 H   0  0  0  0  0  0  0  0  0  0  0  0
   -8.8105    4.3941   -2.4110 H   0  0  0  0  0  0  0  0  0  0  0  0
   -7.9853    5.7811   -1.6679 H   0  0  0  0  0  0  0  0  0  0  0  0
   -9.7300    5.5876   -1.4960 H   0  0  0  0  0  0  0  0  0  0  0  0
   -9.7846    2.5376   -0.9535 H   0  0  0  0  0  0  0  0  0  0  0  0
  -10.7179    3.7861   -0.1146 H   0  0  0  0  0  0  0  0  0  0  0  0
   -9.7308    2.6564    0.8103 H   0  0  0  0  0  0  0  0  0  0  0  0
   -7.8049    5.9333    0.9029 H   0  0  0  0  0  0  0  0  0  0  0  0
   -8.5825    4.7128    1.9206 H   0  0  0  0  0  0  0  0  0  0  0  0
   -9.5679    5.7860    0.9325 H   0  0  0  0  0  0  0  0  0  0  0  0
   -7.5327    2.6281    1.7868 H   0  0  0  0  0  0  0  0  0  0  0  0
   -5.4588    1.3643    1.8465 H   0  0  0  0  0  0  0  0  0  0  0  0
  1  2  1  0  0  0  0
  1 39  1  0  0  0  0
  1 40  1  0  0  0  0
  1 41  1  0  0  0  0
  2  3  1  0  0  0  0
  2 38  1  0  0  0  0
  3  4  2  0  0  0  0
  4  5  1  0  0  0  0
  4 42  1  0  0  0  0
  5  6  1  0  0  0  0
  5 38  2  0  0  0  0
  6  7  2  0  0  0  0
  6  8  1  0  0  0  0
  8  9  1  0  0  0  0
  8 28  1  0  0  0  0
  9 10  1  0  0  0  0
  9 22  1  0  0  0  0
  9 43  1  0  0  0  0
 10 11  2  0  0  0  0
 10 12  1  0  0  0  0
 12 13  1  0  0  0  0
 12 44  1  0  0  0  0
 13 14  1  0  0  0  0
 13 45  1  0  0  0  0
 13 46  1  0  0  0  0
 14 15  1  0  0  0  0
 14 47  1  0  0  0  0
 14 48  1  0  0  0  0
 15 16  1  0  0  0  0
 15 21  2  0  0  0  0
 16 17  2  0  0  0  0
 16 49  1  0  0  0  0
 17 18  1  0  0  0  0
 17 50  1  0  0  0  0
 18 19  2  0  0  0  0
 18 51  1  0  0  0  0
 19 20  1  0  0  0  0
 19 21  1  0  0  0  0
 21 52  1  0  0  0  0
 22 23  1  0  0  0  0
 22 27  2  0  0  0  0
 23 24  2  0  0  0  0
 23 53  1  0  0  0  0
 24 25  1  0  0  0  0
 24 54  1  0  0  0  0
 25 26  2  0  0  0  0
 25 55  1  0  0  0  0
 26 27  1  0  0  0  0
 27 56  1  0  0  0  0
 28 29  1  0  0  0  0
 28 37  2  0  0  0  0
 29 30  2  0  0  0  0
 29 57  1  0  0  0  0
 30 31  1  0  0  0  0
 30 58  1  0  0  0  0
 31 32  1  0  0  0  0
 31 36  2  0  0  0  0
 32 33  1  0  0  0  0
 32 34  1  0  0  0  0
 32 35  1  0  0  0  0
 33 59  1  0  0  0  0
 33 60  1  0  0  0  0
 33 61  1  0  0  0  0
 34 62  1  0  0  0  0
 34 63  1  0  0  0  0
 34 64  1  0  0  0  0
 35 65  1  0  0  0  0
 35 66  1  0  0  0  0
 35 67  1  0  0  0  0
 36 37  1  0  0  0  0
 36 68  1  0  0  0  0
 37 69  1  0  0  0  0
M  END
$$$$
