
 OpenBabel07202414123D

 40 42  0  0  1  0  0  0  0  0999 V2000
    1.0392   -0.1688    0.1716 C   0  0  0  0  0  0  0  0  0  0  0  0
    2.5497   -0.0219    0.1209 C   0  0  0  0  0  0  0  0  0  0  0  0
    2.9347    0.7525    1.1714 F   0  0  0  0  0  0  0  0  0  0  0  0
    3.0892   -1.2542    0.3430 F   0  0  0  0  0  0  0  0  0  0  0  0
    3.0945    0.5344   -1.1978 C   0  0  1  0  0  0  0  0  0  0  0  0
    2.4287    1.8758   -1.4629 C   0  0  0  0  0  0  0  0  0  0  0  0
    1.5266    1.9590   -2.2970 O   0  0  0  0  0  0  0  0  0  0  0  0
    2.8649    2.9353   -0.6917 N   0  0  0  0  0  0  0  0  0  0  0  0
    2.2970    4.2338   -0.7675 C   0  0  0  0  0  0  0  0  0  0  0  0
    0.9124    4.4156   -0.8461 C   0  0  0  0  0  0  0  0  0  0  0  0
    0.2990    5.6206   -0.8802 N   0  0  0  0  0  0  0  0  0  0  0  0
    1.1072    6.7018   -0.8716 C   0  0  0  0  0  0  0  0  0  0  0  0
    2.4994    6.6543   -0.8141 C   0  0  0  0  0  0  0  0  0  0  0  0
    3.2783    7.8203   -0.8592 C   0  0  0  0  0  0  0  0  0  0  0  0
    4.6699    7.7494   -0.8413 C   0  0  0  0  0  0  0  0  0  0  0  0
    5.2973    6.5120   -0.7707 C   0  0  0  0  0  0  0  0  0  0  0  0
    4.5359    5.3448   -0.7190 C   0  0  0  0  0  0  0  0  0  0  0  0
    3.1223    5.3841   -0.7432 C   0  0  0  0  0  0  0  0  0  0  0  0
    4.6161    0.5550   -1.3557 C   0  0  0  0  0  0  0  0  0  0  0  0
    5.1683    0.4543   -2.6462 C   0  0  0  0  0  0  0  0  0  0  0  0
    6.5521    0.3890   -2.8336 C   0  0  0  0  0  0  0  0  0  0  0  0
    7.4083    0.4403   -1.7383 C   0  0  0  0  0  0  0  0  0  0  0  0
    6.8816    0.5647   -0.4564 C   0  0  0  0  0  0  0  0  0  0  0  0
    5.4980    0.6237   -0.2657 C   0  0  0  0  0  0  0  0  0  0  0  0
    0.7525   -0.7025    1.0831 H   0  0  0  0  0  0  0  0  0  0  0  0
    0.6677   -0.7466   -0.6799 H   0  0  0  0  0  0  0  0  0  0  0  0
    0.5401    0.8046    0.1949 H   0  0  0  0  0  0  0  0  0  0  0  0
    2.7373   -0.1476   -1.9835 H   0  0  0  0  0  0  0  0  0  0  0  0
    3.7897    2.8575   -0.2871 H   0  0  0  0  0  0  0  0  0  0  0  0
    0.2270    3.5726   -0.8470 H   0  0  0  0  0  0  0  0  0  0  0  0
    0.5796    7.6510   -0.9235 H   0  0  0  0  0  0  0  0  0  0  0  0
    2.8036    8.7962   -0.9287 H   0  0  0  0  0  0  0  0  0  0  0  0
    5.2638    8.6577   -0.8974 H   0  0  0  0  0  0  0  0  0  0  0  0
    6.3821    6.4491   -0.7765 H   0  0  0  0  0  0  0  0  0  0  0  0
    5.0734    4.4008   -0.7003 H   0  0  0  0  0  0  0  0  0  0  0  0
    4.5226    0.3949   -3.5217 H   0  0  0  0  0  0  0  0  0  0  0  0
    6.9612    0.2797   -3.8358 H   0  0  0  0  0  0  0  0  0  0  0  0
    8.4838    0.3697   -1.8811 H   0  0  0  0  0  0  0  0  0  0  0  0
    7.5482    0.5921    0.4025 H   0  0  0  0  0  0  0  0  0  0  0  0
    5.1365    0.6887    0.7579 H   0  0  0  0  0  0  0  0  0  0  0  0
  1  2  1  0  0  0  0
  1 25  1  0  0  0  0
  1 26  1  0  0  0  0
  1 27  1  0  0  0  0
  2  3  1  0  0  0  0
  2  4  1  0  0  0  0
  2  5  1  0  0  0  0
  5  6  1  0  0  0  0
  5 19  1  0  0  0  0
  5 28  1  6  0  0  0
  6  7  2  0  0  0  0
  6  8  1  0  0  0  0
  8  9  1  0  0  0  0
  8 29  1  0  0  0  0
  9 10  1  0  0  0  0
  9 18  2  0  0  0  0
 10 11  2  0  0  0  0
 10 30  1  0  0  0  0
 11 12  1  0  0  0  0
 12 13  2  0  0  0  0
 12 31  1  0  0  0  0
 13 14  1  0  0  0  0
 13 18  1  0  0  0  0
 14 15  2  0  0  0  0
 14 32  1  0  0  0  0
 15 16  1  0  0  0  0
 15 33  1  0  0  0  0
 16 17  2  0  0  0  0
 16 34  1  0  0  0  0
 17 18  1  0  0  0  0
 17 35  1  0  0  0  0
 19 20  1  0  0  0  0
 19 24  2  0  0  0  0
 20 21  2  0  0  0  0
 20 36  1  0  0  0  0
 21 22  1  0  0  0  0
 21 37  1  0  0  0  0
 22 23  2  0  0  0  0
 22 38  1  0  0  0  0
 23 24  1  0  0  0  0
 23 39  1  0  0  0  0
 24 40  1  0  0  0  0
M  END
$$$$
