
 OpenBabel07202414193D

102108  0  0  1  0  0  0  0  0999 V2000
    2.4932    2.9402   -0.2244 O   0  0  0  0  0  0  0  0  0  0  0  0
    2.0845    1.8410   -0.5941 C   0  0  0  0  0  0  0  0  0  0  0  0
    0.5818    1.4994   -0.6097 C   0  0  0  0  0  0  0  0  0  0  0  0
    0.3017    0.0898   -0.2099 N   0  0  0  0  0  0  0  0  0  0  0  0
    0.7802   -0.1317    1.1661 C   0  0  0  0  0  0  0  0  0  0  0  0
    0.4288   -1.5034    1.6883 C   0  0  0  0  0  0  0  0  0  0  0  0
    1.2040   -2.0295    2.7355 C   0  0  0  0  0  0  0  0  0  0  0  0
    0.9454   -3.3001    3.2369 C   0  0  0  0  0  0  0  0  0  0  0  0
   -0.0831   -4.0566    2.6853 C   0  0  0  0  0  0  0  0  0  0  0  0
   -0.3820   -5.6392    3.2880 Cl  0  0  0  0  0  0  0  0  0  0  0  0
   -0.8766   -3.5411    1.6565 C   0  0  0  0  0  0  0  0  0  0  0  0
   -0.6537   -2.2412    1.1690 C   0  0  0  0  0  0  0  0  0  0  0  0
   -1.5341   -1.6496    0.0606 C   0  0  1  0  0  0  0  0  0  0  0  0
   -3.0700   -1.7320    0.3207 C   0  0  0  0  0  0  0  0  0  0  0  0
   -3.8728   -1.7777   -0.6070 O   0  0  0  0  0  0  0  0  0  0  0  0
   -3.4013   -1.6605    1.6658 N   0  0  0  0  0  0  0  0  0  0  0  0
   -4.6729   -1.5908    2.2885 C   0  0  0  0  0  0  0  0  0  0  0  0
   -5.8753   -1.5308    1.5914 C   0  0  0  0  0  0  0  0  0  0  0  0
   -7.0486   -1.1527    2.1539 N   0  0  0  0  0  0  0  0  0  0  0  0
   -7.0471   -0.9556    3.4897 C   0  0  0  0  0  0  0  0  0  0  0  0
   -5.9733   -1.2541    4.3246 C   0  0  0  0  0  0  0  0  0  0  0  0
   -6.1139   -1.2995    5.7268 C   0  0  0  0  0  0  0  0  0  0  0  0
   -5.0181   -1.5663    6.5441 C   0  0  0  0  0  0  0  0  0  0  0  0
   -3.7651   -1.7309    5.9733 C   0  0  0  0  0  0  0  0  0  0  0  0
   -3.6234   -1.7140    4.5833 C   0  0  0  0  0  0  0  0  0  0  0  0
   -4.7296   -1.5210    3.7141 C   0  0  0  0  0  0  0  0  0  0  0  0
   -1.1640   -0.1684   -0.2445 C   0  0  0  0  0  0  0  0  0  0  0  0
    2.9177    0.8473   -1.0607 N   0  0  0  0  0  0  0  0  0  0  0  0
    4.3676    0.9675   -1.0198 C   0  0  0  0  0  0  0  0  0  0  0  0
    4.9144    1.9972   -2.0111 C   0  0  0  0  0  0  0  0  0  0  0  0
    6.3424    2.0252   -1.9546 O   0  0  0  0  0  0  0  0  0  0  0  0
    6.8719    2.9426   -2.9233 C   0  0  0  0  0  0  0  0  0  0  0  0
    8.3965    2.9650   -2.8506 C   0  0  0  0  0  0  0  0  0  0  0  0
    8.8894    1.6859   -3.2281 O   0  0  0  0  0  0  0  0  0  0  0  0
   10.3088    1.5929   -3.1265 C   0  0  0  0  0  0  0  0  0  0  0  0
   10.6511    0.1567   -3.4625 C   0  0  0  0  0  0  0  0  0  0  0  0
   12.0582   -0.0931   -3.4544 O   0  0  0  0  0  0  0  0  0  0  0  0
   12.3674   -1.4631   -3.7996 C   0  0  0  0  0  0  0  0  0  0  0  0
   11.9093   -1.7477   -5.2153 C   0  0  0  0  0  0  0  0  0  0  0  0
   11.8829   -3.0867   -5.6888 O   0  0  0  0  0  0  0  0  0  0  0  0
   11.5467   -3.1524   -7.0269 C   0  0  0  0  0  0  0  0  0  0  0  0
   11.2746   -4.3968   -7.5645 C   0  0  0  0  0  0  0  0  0  0  0  0
   11.2308   -4.5563   -8.9650 C   0  0  0  0  0  0  0  0  0  0  0  0
   11.7240   -3.5359   -9.8128 C   0  0  0  0  0  0  0  0  0  0  0  0
   12.0388   -2.3230   -9.2277 C   0  0  0  0  0  0  0  0  0  0  0  0
   11.6329   -2.1149   -7.9410 C   0  0  0  0  0  0  0  0  0  0  0  0
   11.7222   -0.6842   -7.7678 C   0  0  0  0  0  0  0  0  0  0  0  0
   10.8791   -0.0083   -7.2226 O   0  0  0  0  0  0  0  0  0  0  0  0
   12.8091   -0.2968   -8.4293 N   0  0  0  0  0  0  0  0  0  0  0  0
   13.5372    0.8467   -7.8364 C   0  0  2  0  0  0  0  0  0  0  0  0
   13.4775    2.1883   -8.5319 C   0  0  0  0  0  0  0  0  0  0  0  0
   14.8435    2.6658   -8.9733 C   0  0  0  0  0  0  0  0  0  0  0  0
   15.8228    2.6671   -7.8242 C   0  0  0  0  0  0  0  0  0  0  0  0
   16.6772    3.5314   -7.6755 O   0  0  0  0  0  0  0  0  0  0  0  0
   15.7480    1.5831   -6.9838 N   0  0  0  0  0  0  0  0  0  0  0  0
   14.8211    0.5655   -7.0291 C   0  0  0  0  0  0  0  0  0  0  0  0
   14.9685   -0.4331   -6.3248 O   0  0  0  0  0  0  0  0  0  0  0  0
   12.9218   -1.1223   -9.5263 C   0  0  0  0  0  0  0  0  0  0  0  0
   13.6214   -1.0045  -10.5101 O   0  0  0  0  0  0  0  0  0  0  0  0
    0.2296    1.6789   -1.6315 H   0  0  0  0  0  0  0  0  0  0  0  0
    0.0722    2.2014    0.0624 H   0  0  0  0  0  0  0  0  0  0  0  0
    0.3843    0.6213    1.8592 H   0  0  0  0  0  0  0  0  0  0  0  0
    1.8737   -0.0591    1.1808 H   0  0  0  0  0  0  0  0  0  0  0  0
    2.0292   -1.4518    3.1511 H   0  0  0  0  0  0  0  0  0  0  0  0
    1.5586   -3.6958    4.0425 H   0  0  0  0  0  0  0  0  0  0  0  0
   -1.6722   -4.1574    1.2406 H   0  0  0  0  0  0  0  0  0  0  0  0
   -1.3321   -2.2502   -0.8367 H   0  0  0  0  0  0  0  0  0  0  0  0
   -2.6227   -1.5536    2.2938 H   0  0  0  0  0  0  0  0  0  0  0  0
   -5.9512   -1.7591    0.5327 H   0  0  0  0  0  0  0  0  0  0  0  0
   -7.9613   -0.5192    3.8864 H   0  0  0  0  0  0  0  0  0  0  0  0
   -7.0929   -1.1766    6.1871 H   0  0  0  0  0  0  0  0  0  0  0  0
   -5.1408   -1.6470    7.6212 H   0  0  0  0  0  0  0  0  0  0  0  0
   -2.8941   -1.8984    6.6021 H   0  0  0  0  0  0  0  0  0  0  0  0
   -2.6242   -1.8962    4.2007 H   0  0  0  0  0  0  0  0  0  0  0  0
   -1.6778    0.5015    0.4600 H   0  0  0  0  0  0  0  0  0  0  0  0
   -1.5548    0.0773   -1.2411 H   0  0  0  0  0  0  0  0  0  0  0  0
    2.4963   -0.0689   -1.1872 H   0  0  0  0  0  0  0  0  0  0  0  0
    4.7883   -0.0211   -1.2372 H   0  0  0  0  0  0  0  0  0  0  0  0
    4.6757    1.2254    0.0007 H   0  0  0  0  0  0  0  0  0  0  0  0
    4.5351    2.9971   -1.7777 H   0  0  0  0  0  0  0  0  0  0  0  0
    4.5927    1.7314   -3.0250 H   0  0  0  0  0  0  0  0  0  0  0  0
    6.4863    3.9459   -2.7151 H   0  0  0  0  0  0  0  0  0  0  0  0
    6.5515    2.6246   -3.9224 H   0  0  0  0  0  0  0  0  0  0  0  0
    8.7261    3.1889   -1.8316 H   0  0  0  0  0  0  0  0  0  0  0  0
    8.7898    3.7157   -3.5444 H   0  0  0  0  0  0  0  0  0  0  0  0
   10.6553    1.8470   -2.1212 H   0  0  0  0  0  0  0  0  0  0  0  0
   10.7782    2.2739   -3.8467 H   0  0  0  0  0  0  0  0  0  0  0  0
   10.2184    0.0065   -4.4538 H   0  0  0  0  0  0  0  0  0  0  0  0
   10.1502   -0.5364   -2.7783 H   0  0  0  0  0  0  0  0  0  0  0  0
   11.9433   -2.1540   -3.0708 H   0  0  0  0  0  0  0  0  0  0  0  0
   13.4597   -1.5602   -3.7547 H   0  0  0  0  0  0  0  0  0  0  0  0
   12.5997   -1.1368   -5.7950 H   0  0  0  0  0  0  0  0  0  0  0  0
   10.8853   -1.4155   -5.3514 H   0  0  0  0  0  0  0  0  0  0  0  0
   11.1091   -5.2424   -6.9002 H   0  0  0  0  0  0  0  0  0  0  0  0
   10.9011   -5.5127   -9.3691 H   0  0  0  0  0  0  0  0  0  0  0  0
   11.8427   -3.7256  -10.8759 H   0  0  0  0  0  0  0  0  0  0  0  0
   12.9045    1.0587   -6.9553 H   0  0  0  0  0  0  0  0  0  0  0  0
   13.1064    2.9166   -7.7915 H   0  0  0  0  0  0  0  0  0  0  0  0
   12.7532    2.1895   -9.3505 H   0  0  0  0  0  0  0  0  0  0  0  0
   14.7539    3.6927   -9.3420 H   0  0  0  0  0  0  0  0  0  0  0  0
   15.2446    2.0343   -9.7697 H   0  0  0  0  0  0  0  0  0  0  0  0
   16.4801    1.5100   -6.2906 H   0  0  0  0  0  0  0  0  0  0  0  0
  1  2  2  0  0  0  0
  2  3  1  0  0  0  0
  2 28  1  0  0  0  0
  3  4  1  0  0  0  0
  3 60  1  0  0  0  0
  3 61  1  0  0  0  0
  4  5  1  0  0  0  0
  4 27  1  0  0  0  0
  5  6  1  0  0  0  0
  5 62  1  0  0  0  0
  5 63  1  0  0  0  0
  6  7  1  0  0  0  0
  6 12  2  0  0  0  0
  7  8  2  0  0  0  0
  7 64  1  0  0  0  0
  8  9  1  0  0  0  0
  8 65  1  0  0  0  0
  9 10  1  0  0  0  0
  9 11  2  0  0  0  0
 11 12  1  0  0  0  0
 11 66  1  0  0  0  0
 12 13  1  0  0  0  0
 13 27  1  0  0  0  0
 13 14  1  0  0  0  0
 13 67  1  6  0  0  0
 14 15  2  0  0  0  0
 14 16  1  0  0  0  0
 16 17  1  0  0  0  0
 16 68  1  0  0  0  0
 17 18  1  0  0  0  0
 17 26  2  0  0  0  0
 18 19  2  0  0  0  0
 18 69  1  0  0  0  0
 19 20  1  0  0  0  0
 20 21  2  0  0  0  0
 20 70  1  0  0  0  0
 21 22  1  0  0  0  0
 21 26  1  0  0  0  0
 22 23  2  0  0  0  0
 22 71  1  0  0  0  0
 23 24  1  0  0  0  0
 23 72  1  0  0  0  0
 24 25  2  0  0  0  0
 24 73  1  0  0  0  0
 25 26  1  0  0  0  0
 25 74  1  0  0  0  0
 27 75  1  0  0  0  0
 27 76  1  0  0  0  0
 28 29  1  0  0  0  0
 28 77  1  0  0  0  0
 29 30  1  0  0  0  0
 29 78  1  0  0  0  0
 29 79  1  0  0  0  0
 30 31  1  0  0  0  0
 30 80  1  0  0  0  0
 30 81  1  0  0  0  0
 31 32  1  0  0  0  0
 32 33  1  0  0  0  0
 32 82  1  0  0  0  0
 32 83  1  0  0  0  0
 33 34  1  0  0  0  0
 33 84  1  0  0  0  0
 33 85  1  0  0  0  0
 34 35  1  0  0  0  0
 35 36  1  0  0  0  0
 35 86  1  0  0  0  0
 35 87  1  0  0  0  0
 36 37  1  0  0  0  0
 36 88  1  0  0  0  0
 36 89  1  0  0  0  0
 37 38  1  0  0  0  0
 38 39  1  0  0  0  0
 38 90  1  0  0  0  0
 38 91  1  0  0  0  0
 39 40  1  0  0  0  0
 39 92  1  0  0  0  0
 39 93  1  0  0  0  0
 40 41  1  0  0  0  0
 41 42  1  0  0  0  0
 41 46  2  0  0  0  0
 42 43  2  0  0  0  0
 42 94  1  0  0  0  0
 43 44  1  0  0  0  0
 43 95  1  0  0  0  0
 44 45  2  0  0  0  0
 44 96  1  0  0  0  0
 45 46  1  0  0  0  0
 45 58  1  0  0  0  0
 46 47  1  0  0  0  0
 47 48  2  0  0  0  0
 47 49  1  0  0  0  0
 49 50  1  0  0  0  0
 49 58  1  0  0  0  0
 50 51  1  0  0  0  0
 50 56  1  0  0  0  0
 50 97  1  1  0  0  0
 51 52  1  0  0  0  0
 51 98  1  0  0  0  0
 51 99  1  0  0  0  0
 52 53  1  0  0  0  0
 52100  1  0  0  0  0
 52101  1  0  0  0  0
 53 54  2  0  0  0  0
 53 55  1  0  0  0  0
 55 56  1  0  0  0  0
 55102  1  0  0  0  0
 56 57  2  0  0  0  0
 58 59  2  0  0  0  0
M  END
$$$$
