
 OpenBabel07202414173D

 44 47  0  0  1  0  0  0  0  0999 V2000
    0.7169   -0.7179    1.0432 Cl  0  0  0  0  0  0  0  0  0  0  0  0
    2.3937   -0.4281    0.7873 C   0  0  0  0  0  0  0  0  0  0  0  0
    2.8696    0.8783    0.7445 C   0  0  0  0  0  0  0  0  0  0  0  0
    4.2279    1.1074    0.5322 C   0  0  0  0  0  0  0  0  0  0  0  0
    5.0971    0.0241    0.3340 C   0  0  0  0  0  0  0  0  0  0  0  0
    4.6321   -1.3049    0.3446 C   0  0  0  0  0  0  0  0  0  0  0  0
    3.2621   -1.5094    0.6084 C   0  0  0  0  0  0  0  0  0  0  0  0
    5.5326   -2.5143    0.0924 C   0  0  1  0  0  0  0  0  0  0  0  0
    4.9162   -3.4480   -0.9483 C   0  0  0  0  0  0  0  0  0  0  0  0
    4.6812   -3.0329   -2.0797 O   0  0  0  0  0  0  0  0  0  0  0  0
    4.6218   -4.7247   -0.4987 N   0  0  0  0  0  0  0  0  0  0  0  0
    4.0111   -5.7218   -1.3080 C   0  0  0  0  0  0  0  0  0  0  0  0
    4.0191   -5.6598   -2.7051 C   0  0  0  0  0  0  0  0  0  0  0  0
    3.4155   -6.5495   -3.5259 N   0  0  0  0  0  0  0  0  0  0  0  0
    2.7622   -7.5608   -2.9303 C   0  0  0  0  0  0  0  0  0  0  0  0
    2.7049   -7.7506   -1.5515 C   0  0  0  0  0  0  0  0  0  0  0  0
    3.3362   -6.8061   -0.7126 C   0  0  0  0  0  0  0  0  0  0  0  0
    3.2619   -6.9712    0.7899 C   0  0  0  0  0  0  0  0  0  0  0  0
    2.1380   -7.8988    1.2499 C   0  0  0  0  0  0  0  0  0  0  0  0
    2.1634   -9.1924    0.4512 C   0  0  0  0  0  0  0  0  0  0  0  0
    1.8835   -8.8947   -1.0171 C   0  0  0  0  0  0  0  0  0  0  0  0
    6.9259   -2.1764   -0.4636 C   0  0  0  0  0  0  0  0  0  0  0  0
    7.5532   -1.0993    0.3314 N   0  0  0  0  0  0  0  0  0  0  0  0
    6.8076    0.4038    0.0794 S   0  0  0  0  0  0  0  0  0  0  0  0
    7.2563    1.2735    1.1353 O   0  0  0  0  0  0  0  0  0  0  0  0
    6.9833    0.7308   -1.3204 O   0  0  0  0  0  0  0  0  0  0  0  0
    2.1916    1.7187    0.8717 H   0  0  0  0  0  0  0  0  0  0  0  0
    4.6040    2.1292    0.5060 H   0  0  0  0  0  0  0  0  0  0  0  0
    2.8501   -2.5162    0.6434 H   0  0  0  0  0  0  0  0  0  0  0  0
    5.6521   -3.0311    1.0531 H   0  0  0  0  0  0  0  0  0  0  0  0
    4.6411   -4.8923    0.4984 H   0  0  0  0  0  0  0  0  0  0  0  0
    4.5348   -4.8757   -3.2492 H   0  0  0  0  0  0  0  0  0  0  0  0
    2.2543   -8.2347   -3.6157 H   0  0  0  0  0  0  0  0  0  0  0  0
    3.0963   -6.0009    1.2700 H   0  0  0  0  0  0  0  0  0  0  0  0
    4.2249   -7.3624    1.1415 H   0  0  0  0  0  0  0  0  0  0  0  0
    1.1682   -7.4017    1.1159 H   0  0  0  0  0  0  0  0  0  0  0  0
    2.2460   -8.1083    2.3195 H   0  0  0  0  0  0  0  0  0  0  0  0
    1.4144   -9.8931    0.8359 H   0  0  0  0  0  0  0  0  0  0  0  0
    3.1435   -9.6740    0.5571 H   0  0  0  0  0  0  0  0  0  0  0  0
    0.8238   -8.6346   -1.1367 H   0  0  0  0  0  0  0  0  0  0  0  0
    2.0697   -9.7999   -1.6066 H   0  0  0  0  0  0  0  0  0  0  0  0
    6.9022   -1.8904   -1.5231 H   0  0  0  0  0  0  0  0  0  0  0  0
    7.5732   -3.0611   -0.4101 H   0  0  0  0  0  0  0  0  0  0  0  0
    8.5453   -0.9833    0.1106 H   0  0  0  0  0  0  0  0  0  0  0  0
  1  2  1  0  0  0  0
  2  3  1  0  0  0  0
  2  7  2  0  0  0  0
  3  4  2  0  0  0  0
  3 27  1  0  0  0  0
  4  5  1  0  0  0  0
  4 28  1  0  0  0  0
  5  6  2  0  0  0  0
  5 24  1  0  0  0  0
  6  7  1  0  0  0  0
  6  8  1  0  0  0  0
  7 29  1  0  0  0  0
  8 22  1  0  0  0  0
  8  9  1  0  0  0  0
  8 30  1  1  0  0  0
  9 10  2  0  0  0  0
  9 11  1  0  0  0  0
 11 12  1  0  0  0  0
 11 31  1  0  0  0  0
 12 13  1  0  0  0  0
 12 17  2  0  0  0  0
 13 14  2  0  0  0  0
 13 32  1  0  0  0  0
 14 15  1  0  0  0  0
 15 16  2  0  0  0  0
 15 33  1  0  0  0  0
 16 17  1  0  0  0  0
 16 21  1  0  0  0  0
 17 18  1  0  0  0  0
 18 19  1  0  0  0  0
 18 34  1  0  0  0  0
 18 35  1  0  0  0  0
 19 20  1  0  0  0  0
 19 36  1  0  0  0  0
 19 37  1  0  0  0  0
 20 21  1  0  0  0  0
 20 38  1  0  0  0  0
 20 39  1  0  0  0  0
 21 40  1  0  0  0  0
 21 41  1  0  0  0  0
 22 23  1  0  0  0  0
 22 42  1  0  0  0  0
 22 43  1  0  0  0  0
 23 24  1  0  0  0  0
 23 44  1  0  0  0  0
 24 25  2  0  0  0  0
 24 26  2  0  0  0  0
M  END
$$$$
