
 OpenBabel07202414183D

 34 36  0  0  0  0  0  0  0  0999 V2000
    1.1068    0.4118    2.7514 F   0  0  0  0  0  0  0  0  0  0  0  0
    0.0339    0.6519    1.9859 C   0  0  0  0  0  0  0  0  0  0  0  0
   -0.0356    0.0957    0.7130 C   0  0  0  0  0  0  0  0  0  0  0  0
   -1.1480    0.3484   -0.0916 C   0  0  0  0  0  0  0  0  0  0  0  0
   -2.1955    1.1655    0.3726 C   0  0  0  0  0  0  0  0  0  0  0  0
   -3.4088    1.4322   -0.5001 C   0  0  0  0  0  0  0  0  0  0  0  0
   -3.9644    2.6606   -0.2222 F   0  0  0  0  0  0  0  0  0  0  0  0
   -3.0678    1.5229   -1.8252 F   0  0  0  0  0  0  0  0  0  0  0  0
   -4.4777    0.3221   -0.3094 C   0  0  0  0  0  0  0  0  0  0  0  0
   -4.2071   -0.8788   -0.3003 O   0  0  0  0  0  0  0  0  0  0  0  0
   -5.7741    0.8262   -0.2406 N   0  0  0  0  0  0  0  0  0  0  0  0
   -6.9233    0.0133   -0.1125 C   0  0  0  0  0  0  0  0  0  0  0  0
   -6.9202   -1.1158    0.7109 C   0  0  0  0  0  0  0  0  0  0  0  0
   -7.9894   -1.9164    0.9129 N   0  0  0  0  0  0  0  0  0  0  0  0
   -9.1089   -1.5984    0.2314 C   0  0  0  0  0  0  0  0  0  0  0  0
   -9.2307   -0.5110   -0.6377 C   0  0  0  0  0  0  0  0  0  0  0  0
  -10.4180   -0.2781   -1.3561 C   0  0  0  0  0  0  0  0  0  0  0  0
  -10.5063    0.7814   -2.2573 C   0  0  0  0  0  0  0  0  0  0  0  0
   -9.4204    1.6249   -2.4415 C   0  0  0  0  0  0  0  0  0  0  0  0
   -8.2384    1.4105   -1.7234 C   0  0  0  0  0  0  0  0  0  0  0  0
   -8.1134    0.3363   -0.8099 C   0  0  0  0  0  0  0  0  0  0  0  0
   -2.1167    1.7047    1.6664 C   0  0  0  0  0  0  0  0  0  0  0  0
   -1.0019    1.4485    2.4591 C   0  0  0  0  0  0  0  0  0  0  0  0
   -0.9383    1.9772    3.6881 F   0  0  0  0  0  0  0  0  0  0  0  0
    0.7740   -0.5345    0.3587 H   0  0  0  0  0  0  0  0  0  0  0  0
   -1.2011   -0.1015   -1.0834 H   0  0  0  0  0  0  0  0  0  0  0  0
   -5.8982    1.7845   -0.5489 H   0  0  0  0  0  0  0  0  0  0  0  0
   -6.0427   -1.4004    1.2862 H   0  0  0  0  0  0  0  0  0  0  0  0
   -9.9398   -2.2797    0.4006 H   0  0  0  0  0  0  0  0  0  0  0  0
  -11.2767   -0.9350   -1.2309 H   0  0  0  0  0  0  0  0  0  0  0  0
  -11.4205    0.9393   -2.8251 H   0  0  0  0  0  0  0  0  0  0  0  0
   -9.4767    2.4377   -3.1603 H   0  0  0  0  0  0  0  0  0  0  0  0
   -7.4085    2.0778   -1.9310 H   0  0  0  0  0  0  0  0  0  0  0  0
   -2.9105    2.3313    2.0654 H   0  0  0  0  0  0  0  0  0  0  0  0
  1  2  1  0  0  0  0
  2  3  1  0  0  0  0
  2 23  2  0  0  0  0
  3  4  2  0  0  0  0
  3 25  1  0  0  0  0
  4  5  1  0  0  0  0
  4 26  1  0  0  0  0
  5  6  1  0  0  0  0
  5 22  2  0  0  0  0
  6  7  1  0  0  0  0
  6  8  1  0  0  0  0
  6  9  1  0  0  0  0
  9 10  2  0  0  0  0
  9 11  1  0  0  0  0
 11 12  1  0  0  0  0
 11 27  1  0  0  0  0
 12 13  1  0  0  0  0
 12 21  2  0  0  0  0
 13 14  2  0  0  0  0
 13 28  1  0  0  0  0
 14 15  1  0  0  0  0
 15 16  2  0  0  0  0
 15 29  1  0  0  0  0
 16 17  1  0  0  0  0
 16 21  1  0  0  0  0
 17 18  2  0  0  0  0
 17 30  1  0  0  0  0
 18 19  1  0  0  0  0
 18 31  1  0  0  0  0
 19 20  2  0  0  0  0
 19 32  1  0  0  0  0
 20 21  1  0  0  0  0
 20 33  1  0  0  0  0
 22 23  1  0  0  0  0
 22 34  1  0  0  0  0
 23 24  1  0  0  0  0
M  END
$$$$
