
 OpenBabel07202414193D

 50 53  0  0  1  0  0  0  0  0999 V2000
    1.3190    0.3675    0.3964 O   0  0  0  0  0  0  0  0  0  0  0  0
    2.3806    0.0740   -0.1551 C   0  0  0  0  0  0  0  0  0  0  0  0
    2.8720   -1.3695   -0.1166 C   0  0  0  0  0  0  0  0  0  0  0  0
    2.6602   -2.1922   -1.3692 C   0  0  0  0  0  0  0  0  0  0  0  0
    1.4885   -2.0301   -2.1115 C   0  0  0  0  0  0  0  0  0  0  0  0
    1.1778   -2.7392   -3.2161 N   0  0  0  0  0  0  0  0  0  0  0  0
    2.0607   -3.6887   -3.5915 C   0  0  0  0  0  0  0  0  0  0  0  0
    3.2556   -3.9679   -2.9306 C   0  0  0  0  0  0  0  0  0  0  0  0
    4.1145   -4.9911   -3.3761 C   0  0  0  0  0  0  0  0  0  0  0  0
    5.3116   -5.2533   -2.7158 C   0  0  0  0  0  0  0  0  0  0  0  0
    5.6672   -4.4902   -1.6124 C   0  0  0  0  0  0  0  0  0  0  0  0
    4.8145   -3.4797   -1.1557 C   0  0  0  0  0  0  0  0  0  0  0  0
    3.5811   -3.1951   -1.7926 C   0  0  0  0  0  0  0  0  0  0  0  0
    3.1872    1.0271   -0.7716 N   0  0  0  0  0  0  0  0  0  0  0  0
    2.8585    2.4416   -0.6483 C   0  0  0  0  0  0  0  0  0  0  0  0
    3.7977    3.2753    0.2371 C   0  0  0  0  0  0  0  0  0  0  0  0
    5.1776    2.7096    0.6471 C   0  0  2  0  0  0  0  0  0  0  0  0
    5.9252    3.7732    1.4918 C   0  0  0  0  0  0  0  0  0  0  0  0
    6.9693    4.5302    0.6818 C   0  0  0  0  0  0  0  0  0  0  0  0
    8.0671    3.5850    0.2148 C   0  0  0  0  0  0  0  0  0  0  0  0
    7.5373    2.2272   -0.2386 C   0  0  0  0  0  0  0  0  0  0  0  0
    6.0299    2.2157   -0.5520 C   0  0  1  0  0  0  0  0  0  0  0  0
    5.6479    0.7853   -0.9666 C   0  0  0  0  0  0  0  0  0  0  0  0
    4.2992    0.7086   -1.6569 C   0  0  0  0  0  0  0  0  0  0  0  0
    2.3503   -1.8754    0.7064 H   0  0  0  0  0  0  0  0  0  0  0  0
    3.9209   -1.3298    0.1825 H   0  0  0  0  0  0  0  0  0  0  0  0
    0.7328   -1.2981   -1.8319 H   0  0  0  0  0  0  0  0  0  0  0  0
    1.7657   -4.2449   -4.4780 H   0  0  0  0  0  0  0  0  0  0  0  0
    3.8484   -5.5963   -4.2407 H   0  0  0  0  0  0  0  0  0  0  0  0
    5.9638   -6.0515   -3.0611 H   0  0  0  0  0  0  0  0  0  0  0  0
    6.6065   -4.6803   -1.0986 H   0  0  0  0  0  0  0  0  0  0  0  0
    5.1444   -2.9177   -0.2869 H   0  0  0  0  0  0  0  0  0  0  0  0
    1.8387    2.5601   -0.2625 H   0  0  0  0  0  0  0  0  0  0  0  0
    2.8336    2.8664   -1.6591 H   0  0  0  0  0  0  0  0  0  0  0  0
    3.2502    3.5050    1.1625 H   0  0  0  0  0  0  0  0  0  0  0  0
    3.9368    4.2482   -0.2542 H   0  0  0  0  0  0  0  0  0  0  0  0
    4.9838    1.8644    1.3223 H   0  0  0  0  0  0  0  0  0  0  0  0
    6.4285    3.2711    2.3287 H   0  0  0  0  0  0  0  0  0  0  0  0
    5.2249    4.4848    1.9447 H   0  0  0  0  0  0  0  0  0  0  0  0
    7.4111    5.3329    1.2826 H   0  0  0  0  0  0  0  0  0  0  0  0
    6.4959    5.0084   -0.1845 H   0  0  0  0  0  0  0  0  0  0  0  0
    8.7822    3.4212    1.0312 H   0  0  0  0  0  0  0  0  0  0  0  0
    8.6356    4.0591   -0.5938 H   0  0  0  0  0  0  0  0  0  0  0  0
    7.7540    1.4816    0.5376 H   0  0  0  0  0  0  0  0  0  0  0  0
    8.1033    1.9121   -1.1251 H   0  0  0  0  0  0  0  0  0  0  0  0
    5.8672    2.8859   -1.4073 H   0  0  0  0  0  0  0  0  0  0  0  0
    5.6724    0.1251   -0.0906 H   0  0  0  0  0  0  0  0  0  0  0  0
    6.3979    0.3966   -1.6666 H   0  0  0  0  0  0  0  0  0  0  0  0
    4.1771   -0.2903   -2.0730 H   0  0  0  0  0  0  0  0  0  0  0  0
    4.2681    1.3875   -2.5172 H   0  0  0  0  0  0  0  0  0  0  0  0
  1  2  2  0  0  0  0
  2  3  1  0  0  0  0
  2 14  1  0  0  0  0
  3  4  1  0  0  0  0
  3 25  1  0  0  0  0
  3 26  1  0  0  0  0
  4  5  1  0  0  0  0
  4 13  2  0  0  0  0
  5  6  2  0  0  0  0
  5 27  1  0  0  0  0
  6  7  1  0  0  0  0
  7  8  2  0  0  0  0
  7 28  1  0  0  0  0
  8  9  1  0  0  0  0
  8 13  1  0  0  0  0
  9 10  2  0  0  0  0
  9 29  1  0  0  0  0
 10 11  1  0  0  0  0
 10 30  1  0  0  0  0
 11 12  2  0  0  0  0
 11 31  1  0  0  0  0
 12 13  1  0  0  0  0
 12 32  1  0  0  0  0
 14 15  1  0  0  0  0
 14 24  1  0  0  0  0
 15 16  1  0  0  0  0
 15 33  1  0  0  0  0
 15 34  1  0  0  0  0
 16 17  1  0  0  0  0
 16 35  1  0  0  0  0
 16 36  1  0  0  0  0
 17 18  1  0  0  0  0
 17 22  1  0  0  0  0
 17 37  1  1  0  0  0
 18 19  1  0  0  0  0
 18 38  1  0  0  0  0
 18 39  1  0  0  0  0
 19 20  1  0  0  0  0
 19 40  1  0  0  0  0
 19 41  1  0  0  0  0
 20 21  1  0  0  0  0
 20 42  1  0  0  0  0
 20 43  1  0  0  0  0
 21 22  1  0  0  0  0
 21 44  1  0  0  0  0
 21 45  1  0  0  0  0
 22 23  1  0  0  0  0
 22 46  1  6  0  0  0
 23 24  1  0  0  0  0
 23 47  1  0  0  0  0
 23 48  1  0  0  0  0
 24 49  1  0  0  0  0
 24 50  1  0  0  0  0
M  END
$$$$
