
 OpenBabel07202414183D

 73 78  0  0  1  0  0  0  0  0999 V2000
    3.7028   -1.3487   -2.2012 F   0  0  0  0  0  0  0  0  0  0  0  0
    2.7528   -0.7102   -1.4793 C   0  0  0  0  0  0  0  0  0  0  0  0
    1.7463   -0.4016   -2.3296 F   0  0  0  0  0  0  0  0  0  0  0  0
    2.2698   -1.5831   -0.5684 F   0  0  0  0  0  0  0  0  0  0  0  0
    3.2982    0.5653   -0.7987 C   0  0  0  0  0  0  0  0  0  0  0  0
    4.7312    0.8381   -1.0251 N   0  0  0  0  0  0  0  0  0  0  0  0
    5.1705    2.0577   -0.3523 C   0  0  0  0  0  0  0  0  0  0  0  0
    6.6583    2.2623   -0.6216 C   0  0  0  0  0  0  0  0  0  0  0  0
    7.1048    3.4353    0.0536 O   0  0  0  0  0  0  0  0  0  0  0  0
    8.4199    3.7517   -0.1588 C   0  0  0  0  0  0  0  0  0  0  0  0
    9.3263    2.9993   -0.9016 C   0  0  0  0  0  0  0  0  0  0  0  0
   10.6183    3.4650   -1.1067 C   0  0  0  0  0  0  0  0  0  0  0  0
   11.0177    4.6934   -0.5712 C   0  0  0  0  0  0  0  0  0  0  0  0
   12.2724    5.2131   -0.8745 C   0  0  0  0  0  0  0  0  0  0  0  0
   12.7057    6.4229   -0.4737 N   0  0  0  0  0  0  0  0  0  0  0  0
   11.8529    7.1277    0.3000 C   0  0  0  0  0  0  0  0  0  0  0  0
   10.5992    6.6802    0.7439 C   0  0  0  0  0  0  0  0  0  0  0  0
    9.9504    7.4880    1.7010 N   0  0  0  0  0  0  0  0  0  0  0  0
    9.1661    7.1074    2.8284 C   0  0  0  0  0  0  0  0  0  0  0  0
    9.0906    8.3957    3.6723 C   0  0  0  0  0  0  0  0  0  0  0  0
    9.6042    9.5496    2.7461 C   0  0  3  0  0  0  0  0  0  0  0  0
    8.6085   10.7219    2.6714 C   0  0  0  0  0  0  0  0  0  0  0  0
    9.1894   12.0040    2.1655 N   0  0  0  0  0  0  0  0  0  0  0  0
    9.6298   12.1989    0.5244 S   0  0  0  0  0  0  0  0  0  0  0  0
   10.0037   13.5933    0.4092 O   0  0  0  0  0  0  0  0  0  0  0  0
   10.6171   11.1903    0.2019 O   0  0  0  0  0  0  0  0  0  0  0  0
    8.0884   11.9726   -0.4009 C   0  0  0  0  0  0  0  0  0  0  0  0
    8.4967   11.9462   -1.8614 C   0  0  0  0  0  0  0  0  0  0  0  0
    9.1919   13.1129   -2.3501 C   0  0  0  0  0  0  0  0  0  0  0  0
    9.7323   14.0508   -2.7809 N   0  0  0  0  0  0  0  0  0  0  0  0
    8.8334   10.6058   -2.4936 C   0  0  0  0  0  0  0  0  0  0  0  0
    7.5695   11.2996   -2.8941 C   0  0  0  0  0  0  0  0  0  0  0  0
   10.2737   12.4600    3.0778 C   0  0  0  0  0  0  0  0  0  0  0  0
   11.3124   11.3921    3.3284 C   0  0  0  0  0  0  0  0  0  0  0  0
   12.6011   11.8026    3.7216 C   0  0  0  0  0  0  0  0  0  0  0  0
   13.6043   10.8685    3.9658 C   0  0  0  0  0  0  0  0  0  0  0  0
   13.3210    9.5177    3.8322 C   0  0  0  0  0  0  0  0  0  0  0  0
   14.5478    8.3495    4.1327 Cl  0  0  0  0  0  0  0  0  0  0  0  0
   12.0445    9.0937    3.4573 C   0  0  0  0  0  0  0  0  0  0  0  0
   11.0118   10.0163    3.1884 C   0  0  0  0  0  0  0  0  0  0  0  0
    9.6011    8.7982    1.4190 C   0  0  0  0  0  0  0  0  0  0  0  0
    9.1078    9.1459    0.3574 O   0  0  0  0  0  0  0  0  0  0  0  0
   10.1394    5.4469    0.2482 C   0  0  0  0  0  0  0  0  0  0  0  0
    8.8309    4.9513    0.4216 C   0  0  0  0  0  0  0  0  0  0  0  0
    3.1213    0.4813    0.2799 H   0  0  0  0  0  0  0  0  0  0  0  0
    2.7139    1.4220   -1.1558 H   0  0  0  0  0  0  0  0  0  0  0  0
    4.9112    0.8942   -2.0300 H   0  0  0  0  0  0  0  0  0  0  0  0
    5.0104    1.9856    0.7301 H   0  0  0  0  0  0  0  0  0  0  0  0
    4.6103    2.9325   -0.7037 H   0  0  0  0  0  0  0  0  0  0  0  0
    6.8100    2.3731   -1.7037 H   0  0  0  0  0  0  0  0  0  0  0  0
    7.2124    1.3908   -0.2499 H   0  0  0  0  0  0  0  0  0  0  0  0
    9.0531    2.0587   -1.3685 H   0  0  0  0  0  0  0  0  0  0  0  0
   11.2975    2.8817   -1.7265 H   0  0  0  0  0  0  0  0  0  0  0  0
   12.9787    4.6659   -1.4923 H   0  0  0  0  0  0  0  0  0  0  0  0
   12.2521    8.0917    0.6128 H   0  0  0  0  0  0  0  0  0  0  0  0
    9.5876    6.2577    3.3692 H   0  0  0  0  0  0  0  0  0  0  0  0
    8.1476    6.8766    2.4966 H   0  0  0  0  0  0  0  0  0  0  0  0
    9.6976    8.2865    4.5786 H   0  0  0  0  0  0  0  0  0  0  0  0
    8.0606    8.5598    4.0106 H   0  0  0  0  0  0  0  0  0  0  0  0
    8.2516   10.9383    3.6903 H   0  0  0  0  0  0  0  0  0  0  0  0
    7.7018   10.4760    2.1084 H   0  0  0  0  0  0  0  0  0  0  0  0
    7.4444   12.8303   -0.1779 H   0  0  0  0  0  0  0  0  0  0  0  0
    7.5863   11.0562   -0.0928 H   0  0  0  0  0  0  0  0  0  0  0  0
    8.7278    9.6961   -1.9154 H   0  0  0  0  0  0  0  0  0  0  0  0
    9.6707   10.5711   -3.1821 H   0  0  0  0  0  0  0  0  0  0  0  0
    6.6356   10.8450   -2.5865 H   0  0  0  0  0  0  0  0  0  0  0  0
    7.5357   11.7138   -3.8998 H   0  0  0  0  0  0  0  0  0  0  0  0
    9.8261   12.7583    4.0338 H   0  0  0  0  0  0  0  0  0  0  0  0
   10.7506   13.3636    2.6838 H   0  0  0  0  0  0  0  0  0  0  0  0
   12.8361   12.8618    3.8192 H   0  0  0  0  0  0  0  0  0  0  0  0
   14.5984   11.2008    4.2508 H   0  0  0  0  0  0  0  0  0  0  0  0
   11.8763    8.0245    3.3732 H   0  0  0  0  0  0  0  0  0  0  0  0
    8.0812    5.5323    0.9424 H   0  0  0  0  0  0  0  0  0  0  0  0
  1  2  1  0  0  0  0
  2  3  1  0  0  0  0
  2  4  1  0  0  0  0
  2  5  1  0  0  0  0
  5  6  1  0  0  0  0
  5 45  1  0  0  0  0
  5 46  1  0  0  0  0
  6  7  1  0  0  0  0
  6 47  1  0  0  0  0
  7  8  1  0  0  0  0
  7 48  1  0  0  0  0
  7 49  1  0  0  0  0
  8  9  1  0  0  0  0
  8 50  1  0  0  0  0
  8 51  1  0  0  0  0
  9 10  1  0  0  0  0
 10 11  1  0  0  0  0
 10 44  2  0  0  0  0
 11 12  2  0  0  0  0
 11 52  1  0  0  0  0
 12 13  1  0  0  0  0
 12 53  1  0  0  0  0
 13 14  1  0  0  0  0
 13 43  2  0  0  0  0
 14 15  2  0  0  0  0
 14 54  1  0  0  0  0
 15 16  1  0  0  0  0
 16 17  2  0  0  0  0
 16 55  1  0  0  0  0
 17 18  1  0  0  0  0
 17 43  1  0  0  0  0
 18 19  1  0  0  0  0
 18 41  1  0  0  0  0
 19 20  1  0  0  0  0
 19 56  1  0  0  0  0
 19 57  1  0  0  0  0
 20 21  1  0  0  0  0
 20 58  1  0  0  0  0
 20 59  1  0  0  0  0
 21 22  1  0  0  0  0
 21 40  1  0  0  0  0
 21 41  1  0  0  0  0
 22 23  1  0  0  0  0
 22 60  1  0  0  0  0
 22 61  1  0  0  0  0
 23 24  1  0  0  0  0
 23 33  1  0  0  0  0
 24 25  2  0  0  0  0
 24 26  2  0  0  0  0
 24 27  1  0  0  0  0
 27 28  1  0  0  0  0
 27 62  1  0  0  0  0
 27 63  1  0  0  0  0
 28 29  1  0  0  0  0
 28 31  1  0  0  0  0
 28 32  1  0  0  0  0
 29 30  3  0  0  0  0
 31 32  1  0  0  0  0
 31 64  1  0  0  0  0
 31 65  1  0  0  0  0
 32 66  1  0  0  0  0
 32 67  1  0  0  0  0
 33 34  1  0  0  0  0
 33 68  1  0  0  0  0
 33 69  1  0  0  0  0
 34 35  1  0  0  0  0
 34 40  2  0  0  0  0
 35 36  2  0  0  0  0
 35 70  1  0  0  0  0
 36 37  1  0  0  0  0
 36 71  1  0  0  0  0
 37 38  1  0  0  0  0
 37 39  2  0  0  0  0
 39 40  1  0  0  0  0
 39 72  1  0  0  0  0
 41 42  2  0  0  0  0
 43 44  1  0  0  0  0
 44 73  1  0  0  0  0
M  END
$$$$
