
 OpenBabel07202414123D

 65 68  0  0  1  0  0  0  0  0999 V2000
    0.9624   -0.7284   -1.5380 C   0  0  0  0  0  0  0  0  0  0  0  0
    2.3689   -1.2832   -1.7492 C   0  0  0  0  0  0  0  0  0  0  0  0
    2.2977   -2.6899   -2.3350 C   0  0  0  0  0  0  0  0  0  0  0  0
    3.0403   -0.4182   -2.6755 O   0  0  0  0  0  0  0  0  0  0  0  0
    4.3875   -0.2320   -2.5688 C   0  0  0  0  0  0  0  0  0  0  0  0
    5.2316   -0.8051   -1.6351 C   0  0  0  0  0  0  0  0  0  0  0  0
    6.6003   -0.4727   -1.6030 C   0  0  0  0  0  0  0  0  0  0  0  0
    7.1982    0.4165   -2.5118 C   0  0  0  0  0  0  0  0  0  0  0  0
    6.3239    0.9422   -3.4803 C   0  0  0  0  0  0  0  0  0  0  0  0
    4.9487    0.6337   -3.5018 C   0  0  0  0  0  0  0  0  0  0  0  0
    8.6309    0.7644   -2.4714 N   0  0  0  0  0  0  0  0  0  0  0  0
    9.1018    1.9382   -3.2713 C   0  0  3  0  0  0  0  0  0  0  0  0
    9.5621    1.5698   -4.6815 C   0  0  0  0  0  0  0  0  0  0  0  0
    9.1484    0.4184   -5.3620 C   0  0  0  0  0  0  0  0  0  0  0  0
    9.6422    0.1415   -6.6334 C   0  0  0  0  0  0  0  0  0  0  0  0
   10.5423    1.0268   -7.1955 C   0  0  0  0  0  0  0  0  0  0  0  0
   10.9699    2.1466   -6.5774 N   0  0  0  0  0  0  0  0  0  0  0  0
   10.4887    2.3847   -5.3391 C   0  0  0  0  0  0  0  0  0  0  0  0
    8.2489    3.2491   -3.1467 C   0  0  0  0  0  0  0  0  0  0  0  0
    7.8598    3.6614   -2.0534 O   0  0  0  0  0  0  0  0  0  0  0  0
    8.0103    3.9585   -4.3139 N   0  0  0  0  0  0  0  0  0  0  0  0
    7.1985    5.1679   -4.3274 C   0  0  0  0  0  0  0  0  0  0  0  0
    7.4163    5.9573   -5.6205 C   0  0  0  0  0  0  0  0  0  0  0  0
    6.6632    7.2653   -5.6522 C   0  0  0  0  0  0  0  0  0  0  0  0
    7.2639    8.4388   -5.1770 C   0  0  0  0  0  0  0  0  0  0  0  0
    6.5838    9.6600   -5.2294 C   0  0  0  0  0  0  0  0  0  0  0  0
    5.2937    9.7141   -5.7498 C   0  0  0  0  0  0  0  0  0  0  0  0
    4.6922    8.5502   -6.2089 C   0  0  0  0  0  0  0  0  0  0  0  0
    5.3593    7.3308   -6.1646 C   0  0  0  0  0  0  0  0  0  0  0  0
    3.4522    8.6019   -6.7129 F   0  0  0  0  0  0  0  0  0  0  0  0
    9.5457    0.0420   -1.6458 C   0  0  0  0  0  0  0  0  0  0  0  0
    9.2028   -0.8663   -0.8906 O   0  0  0  0  0  0  0  0  0  0  0  0
   10.9668    0.3485   -1.6170 C   0  0  0  0  0  0  0  0  0  0  0  0
   11.9382    0.6656   -2.5468 C   0  0  0  0  0  0  0  0  0  0  0  0
   13.1732    0.8128   -1.9657 N   0  0  0  0  0  0  0  0  0  0  0  0
   13.0001    0.4903   -0.7080 C   0  0  0  0  0  0  0  0  0  0  0  0
   11.7005    0.1743   -0.4569 N   0  0  0  0  0  0  0  0  0  0  0  0
    0.3752   -1.3773   -0.8791 H   0  0  0  0  0  0  0  0  0  0  0  0
    0.4295   -0.6132   -2.4874 H   0  0  0  0  0  0  0  0  0  0  0  0
    1.0137    0.2656   -1.0787 H   0  0  0  0  0  0  0  0  0  0  0  0
    2.8433   -1.2970   -0.7630 H   0  0  0  0  0  0  0  0  0  0  0  0
    1.9933   -2.6630   -3.3872 H   0  0  0  0  0  0  0  0  0  0  0  0
    1.5958   -3.3221   -1.7817 H   0  0  0  0  0  0  0  0  0  0  0  0
    3.2815   -3.1691   -2.3032 H   0  0  0  0  0  0  0  0  0  0  0  0
    4.8800   -1.5135   -0.8934 H   0  0  0  0  0  0  0  0  0  0  0  0
    7.1462   -0.9427   -0.7945 H   0  0  0  0  0  0  0  0  0  0  0  0
    6.6614    1.5947   -4.2758 H   0  0  0  0  0  0  0  0  0  0  0  0
    4.3131    1.0812   -4.2633 H   0  0  0  0  0  0  0  0  0  0  0  0
   10.0109    2.2889   -2.7681 H   0  0  0  0  0  0  0  0  0  0  0  0
    8.4616   -0.2948   -4.9130 H   0  0  0  0  0  0  0  0  0  0  0  0
    9.3381   -0.7534   -7.1659 H   0  0  0  0  0  0  0  0  0  0  0  0
   10.9620    0.8494   -8.1815 H   0  0  0  0  0  0  0  0  0  0  0  0
   10.9001    3.2762   -4.8671 H   0  0  0  0  0  0  0  0  0  0  0  0
    8.1554    3.5013   -5.2062 H   0  0  0  0  0  0  0  0  0  0  0  0
    7.4471    5.7729   -3.4477 H   0  0  0  0  0  0  0  0  0  0  0  0
    6.1510    4.8586   -4.2313 H   0  0  0  0  0  0  0  0  0  0  0  0
    7.1197    5.3470   -6.4820 H   0  0  0  0  0  0  0  0  0  0  0  0
    8.4839    6.1550   -5.7577 H   0  0  0  0  0  0  0  0  0  0  0  0
    8.2745    8.4164   -4.7700 H   0  0  0  0  0  0  0  0  0  0  0  0
    7.0642   10.5644   -4.8659 H   0  0  0  0  0  0  0  0  0  0  0  0
    4.7557   10.6554   -5.8044 H   0  0  0  0  0  0  0  0  0  0  0  0
    4.8579    6.4433   -6.5390 H   0  0  0  0  0  0  0  0  0  0  0  0
   11.8471    0.7804   -3.6156 H   0  0  0  0  0  0  0  0  0  0  0  0
   13.7711    0.4481    0.0500 H   0  0  0  0  0  0  0  0  0  0  0  0
   11.3190   -0.1651    0.4165 H   0  0  0  0  0  0  0  0  0  0  0  0
  1  2  1  0  0  0  0
  1 38  1  0  0  0  0
  1 39  1  0  0  0  0
  1 40  1  0  0  0  0
  2  3  1  0  0  0  0
  2  4  1  0  0  0  0
  2 41  1  0  0  0  0
  3 42  1  0  0  0  0
  3 43  1  0  0  0  0
  3 44  1  0  0  0  0
  4  5  1  0  0  0  0
  5  6  1  0  0  0  0
  5 10  2  0  0  0  0
  6  7  2  0  0  0  0
  6 45  1  0  0  0  0
  7  8  1  0  0  0  0
  7 46  1  0  0  0  0
  8  9  2  0  0  0  0
  8 11  1  0  0  0  0
  9 10  1  0  0  0  0
  9 47  1  0  0  0  0
 10 48  1  0  0  0  0
 11 12  1  0  0  0  0
 11 31  1  0  0  0  0
 12 13  1  0  0  0  0
 12 19  1  0  0  0  0
 12 49  1  0  0  0  0
 13 14  1  0  0  0  0
 13 18  2  0  0  0  0
 14 15  2  0  0  0  0
 14 50  1  0  0  0  0
 15 16  1  0  0  0  0
 15 51  1  0  0  0  0
 16 17  2  0  0  0  0
 16 52  1  0  0  0  0
 17 18  1  0  0  0  0
 18 53  1  0  0  0  0
 19 20  2  0  0  0  0
 19 21  1  0  0  0  0
 21 22  1  0  0  0  0
 21 54  1  0  0  0  0
 22 23  1  0  0  0  0
 22 55  1  0  0  0  0
 22 56  1  0  0  0  0
 23 24  1  0  0  0  0
 23 57  1  0  0  0  0
 23 58  1  0  0  0  0
 24 25  1  0  0  0  0
 24 29  2  0  0  0  0
 25 26  2  0  0  0  0
 25 59  1  0  0  0  0
 26 27  1  0  0  0  0
 26 60  1  0  0  0  0
 27 28  2  0  0  0  0
 27 61  1  0  0  0  0
 28 29  1  0  0  0  0
 28 30  1  0  0  0  0
 29 62  1  0  0  0  0
 31 32  2  0  0  0  0
 31 33  1  0  0  0  0
 33 34  2  0  0  0  0
 33 37  1  0  0  0  0
 34 35  1  0  0  0  0
 34 63  1  0  0  0  0
 35 36  2  0  0  0  0
 36 37  1  0  0  0  0
 36 64  1  0  0  0  0
 37 65  1  0  0  0  0
M  END
$$$$
