
 OpenBabel07202414133D

 68 71  0  0  1  0  0  0  0  0999 V2000
   12.9600    2.6331    4.1734 C   0  0  0  0  0  0  0  0  0  0  0  0
   12.9351    1.3888    5.0428 C   0  0  0  0  0  0  0  0  0  0  0  0
   11.7968    1.3794    5.9186 O   0  0  0  0  0  0  0  0  0  0  0  0
   10.6403    0.8967    5.3601 C   0  0  0  0  0  0  0  0  0  0  0  0
   10.5305    0.6071    4.1778 O   0  0  0  0  0  0  0  0  0  0  0  0
    9.5593    0.7205    6.3208 C   0  0  0  0  0  0  0  0  0  0  0  0
    9.6275    0.9714    7.6848 N   0  0  0  0  0  0  0  0  0  0  0  0
    8.4454    0.6103    8.1314 C   0  0  0  0  0  0  0  0  0  0  0  0
    7.5828    0.1591    7.1832 O   0  0  0  0  0  0  0  0  0  0  0  0
    8.3038    0.2212    6.0195 C   0  0  0  0  0  0  0  0  0  0  0  0
    7.6430   -0.2561    4.7838 C   0  0  0  0  0  0  0  0  0  0  0  0
    6.9456    0.8396    4.1493 N   0  0  0  0  0  0  0  0  0  0  0  0
    6.7006    0.8551    2.7989 C   0  0  0  0  0  0  0  0  0  0  0  0
    7.0224   -0.0871    2.0721 O   0  0  0  0  0  0  0  0  0  0  0  0
    6.0764    2.1508    2.2024 C   0  0  3  0  0  0  0  0  0  0  0  0
    4.6883    2.4020    2.7369 N   0  0  0  0  0  0  0  0  0  0  0  0
    4.3167    3.1228    3.9045 C   0  0  0  0  0  0  0  0  0  0  0  0
    3.1360    3.2846    4.2254 O   0  0  0  0  0  0  0  0  0  0  0  0
    5.3177    3.7580    4.7656 C   0  0  0  0  0  0  0  0  0  0  0  0
    5.0762    4.8897    5.5206 C   0  0  0  0  0  0  0  0  0  0  0  0
    6.2363    5.2701    6.1198 O   0  0  0  0  0  0  0  0  0  0  0  0
    7.1250    4.3153    5.7375 C   0  0  0  0  0  0  0  0  0  0  0  0
    6.6245    3.3595    4.9820 N   0  0  0  0  0  0  0  0  0  0  0  0
    3.5985    1.7574    2.0100 C   0  0  0  0  0  0  0  0  0  0  0  0
    2.4675    2.4934    1.6456 C   0  0  0  0  0  0  0  0  0  0  0  0
    1.3262    1.8774    1.0999 C   0  0  0  0  0  0  0  0  0  0  0  0
    1.2519    0.4908    0.8853 C   0  0  0  0  0  0  0  0  0  0  0  0
   -0.0736   -0.1729    0.4328 C   0  0  0  0  0  0  0  0  0  0  0  0
   -0.9060    0.7528   -0.4904 C   0  0  0  0  0  0  0  0  0  0  0  0
    0.1039   -1.4978   -0.3456 C   0  0  0  0  0  0  0  0  0  0  0  0
   -0.9275   -0.4912    1.6814 C   0  0  0  0  0  0  0  0  0  0  0  0
    2.4144   -0.2373    1.1959 C   0  0  0  0  0  0  0  0  0  0  0  0
    3.5742    0.3853    1.7308 C   0  0  0  0  0  0  0  0  0  0  0  0
    7.0728    3.3218    2.1584 C   0  0  0  0  0  0  0  0  0  0  0  0
    6.7002    4.6731    2.1932 C   0  0  0  0  0  0  0  0  0  0  0  0
    7.6703    5.6650    2.3630 C   0  0  0  0  0  0  0  0  0  0  0  0
    9.0014    5.2921    2.3869 C   0  0  0  0  0  0  0  0  0  0  0  0
    9.4139    4.0232    2.2186 N   0  0  0  0  0  0  0  0  0  0  0  0
    8.4508    3.0759    2.0979 C   0  0  0  0  0  0  0  0  0  0  0  0
   13.8635    2.6509    3.5569 H   0  0  0  0  0  0  0  0  0  0  0  0
   12.9350    3.5375    4.7891 H   0  0  0  0  0  0  0  0  0  0  0  0
   12.0912    2.6728    3.5093 H   0  0  0  0  0  0  0  0  0  0  0  0
   13.8306    1.3660    5.6743 H   0  0  0  0  0  0  0  0  0  0  0  0
   12.9600    0.4787    4.4314 H   0  0  0  0  0  0  0  0  0  0  0  0
    8.0789    0.6223    9.1490 H   0  0  0  0  0  0  0  0  0  0  0  0
    6.9017   -1.0284    5.0117 H   0  0  0  0  0  0  0  0  0  0  0  0
    8.3661   -0.6932    4.0886 H   0  0  0  0  0  0  0  0  0  0  0  0
    6.7882    1.6922    4.6840 H   0  0  0  0  0  0  0  0  0  0  0  0
    5.9302    1.9257    1.1338 H   0  0  0  0  0  0  0  0  0  0  0  0
    4.2131    5.5195    5.6847 H   0  0  0  0  0  0  0  0  0  0  0  0
    8.1449    4.4390    6.0768 H   0  0  0  0  0  0  0  0  0  0  0  0
    2.4370    3.5686    1.8055 H   0  0  0  0  0  0  0  0  0  0  0  0
    0.4786    2.5235    0.8897 H   0  0  0  0  0  0  0  0  0  0  0  0
   -0.3295    1.0491   -1.3741 H   0  0  0  0  0  0  0  0  0  0  0  0
   -1.2399    1.6622    0.0197 H   0  0  0  0  0  0  0  0  0  0  0  0
   -1.8170    0.2519   -0.8409 H   0  0  0  0  0  0  0  0  0  0  0  0
    0.6668   -1.3481   -1.2728 H   0  0  0  0  0  0  0  0  0  0  0  0
   -0.8744   -1.9162   -0.6223 H   0  0  0  0  0  0  0  0  0  0  0  0
    0.6090   -2.2683    0.2451 H   0  0  0  0  0  0  0  0  0  0  0  0
   -1.1122    0.4021    2.2882 H   0  0  0  0  0  0  0  0  0  0  0  0
   -0.4390   -1.2346    2.3220 H   0  0  0  0  0  0  0  0  0  0  0  0
   -1.9057   -0.9005    1.3964 H   0  0  0  0  0  0  0  0  0  0  0  0
    2.4382   -1.3185    1.0749 H   0  0  0  0  0  0  0  0  0  0  0  0
    4.4045   -0.2623    1.9987 H   0  0  0  0  0  0  0  0  0  0  0  0
    5.6558    4.9707    2.1758 H   0  0  0  0  0  0  0  0  0  0  0  0
    7.3915    6.7033    2.5078 H   0  0  0  0  0  0  0  0  0  0  0  0
    9.7916    6.0205    2.5473 H   0  0  0  0  0  0  0  0  0  0  0  0
    8.8550    2.0725    1.9692 H   0  0  0  0  0  0  0  0  0  0  0  0
  1  2  1  0  0  0  0
  1 40  1  0  0  0  0
  1 41  1  0  0  0  0
  1 42  1  0  0  0  0
  2  3  1  0  0  0  0
  2 43  1  0  0  0  0
  2 44  1  0  0  0  0
  3  4  1  0  0  0  0
  4  5  2  0  0  0  0
  4  6  1  0  0  0  0
  6  7  1  0  0  0  0
  6 10  2  0  0  0  0
  7  8  2  0  0  0  0
  8  9  1  0  0  0  0
  8 45  1  0  0  0  0
  9 10  1  0  0  0  0
 10 11  1  0  0  0  0
 11 12  1  0  0  0  0
 11 46  1  0  0  0  0
 11 47  1  0  0  0  0
 12 13  1  0  0  0  0
 12 48  1  0  0  0  0
 13 14  2  0  0  0  0
 13 15  1  0  0  0  0
 15 16  1  0  0  0  0
 15 34  1  0  0  0  0
 15 49  1  0  0  0  0
 16 17  1  0  0  0  0
 16 24  1  0  0  0  0
 17 18  2  0  0  0  0
 17 19  1  0  0  0  0
 19 20  2  0  0  0  0
 19 23  1  0  0  0  0
 20 21  1  0  0  0  0
 20 50  1  0  0  0  0
 21 22  1  0  0  0  0
 22 23  2  0  0  0  0
 22 51  1  0  0  0  0
 24 25  1  0  0  0  0
 24 33  2  0  0  0  0
 25 26  2  0  0  0  0
 25 52  1  0  0  0  0
 26 27  1  0  0  0  0
 26 53  1  0  0  0  0
 27 28  1  0  0  0  0
 27 32  2  0  0  0  0
 28 29  1  0  0  0  0
 28 30  1  0  0  0  0
 28 31  1  0  0  0  0
 29 54  1  0  0  0  0
 29 55  1  0  0  0  0
 29 56  1  0  0  0  0
 30 57  1  0  0  0  0
 30 58  1  0  0  0  0
 30 59  1  0  0  0  0
 31 60  1  0  0  0  0
 31 61  1  0  0  0  0
 31 62  1  0  0  0  0
 32 33  1  0  0  0  0
 32 63  1  0  0  0  0
 33 64  1  0  0  0  0
 34 35  1  0  0  0  0
 34 39  2  0  0  0  0
 35 36  2  0  0  0  0
 35 65  1  0  0  0  0
 36 37  1  0  0  0  0
 36 66  1  0  0  0  0
 37 38  2  0  0  0  0
 37 67  1  0  0  0  0
 38 39  1  0  0  0  0
 39 68  1  0  0  0  0
M  END
$$$$
