
 OpenBabel07202414143D

 54 58  0  0  1  0  0  0  0  0999 V2000
    2.4036   -2.1737    1.2145 C   0  0  0  0  0  0  0  0  0  0  0  0
    2.9503   -1.0045    0.5767 N   0  0  0  0  0  0  0  0  0  0  0  0
    3.5889   -0.0310    1.3273 C   0  0  0  0  0  0  0  0  0  0  0  0
    3.6261   -0.0691    2.5548 O   0  0  0  0  0  0  0  0  0  0  0  0
    4.1851    1.0938    0.4560 C   0  0  0  0  0  0  0  0  0  0  0  0
    5.1670    1.9437    1.1523 N   0  0  0  0  0  0  0  0  0  0  0  0
    5.6999    2.9849    0.2633 C   0  0  0  0  0  0  0  0  0  0  0  0
    6.8673    2.5568   -0.6065 C   0  0  0  0  0  0  0  0  0  0  0  0
    7.1634    3.3122   -1.7548 C   0  0  0  0  0  0  0  0  0  0  0  0
    8.2400    2.9778   -2.5784 C   0  0  0  0  0  0  0  0  0  0  0  0
    9.0404    1.8881   -2.2522 C   0  0  0  0  0  0  0  0  0  0  0  0
   10.3511    1.4421   -3.2738 Cl  0  0  0  0  0  0  0  0  0  0  0  0
    8.7770    1.1434   -1.1085 C   0  0  0  0  0  0  0  0  0  0  0  0
    7.6946    1.4617   -0.2664 C   0  0  0  0  0  0  0  0  0  0  0  0
    7.3441    0.5628    0.9302 C   0  0  3  0  0  0  0  0  0  0  0  0
    8.5714    0.2662    1.8347 C   0  0  0  0  0  0  0  0  0  0  0  0
    8.8473   -1.2172    1.6964 C   0  0  0  0  0  0  0  0  0  0  0  0
    8.1563   -1.6297    0.5054 N   0  0  0  0  0  0  0  0  0  0  0  0
    8.3773   -2.9000   -0.1037 C   0  0  0  0  0  0  0  0  0  0  0  0
    7.2974   -3.7089   -0.4765 C   0  0  0  0  0  0  0  0  0  0  0  0
    7.3990   -4.9723   -0.9496 N   0  0  0  0  0  0  0  0  0  0  0  0
    8.6463   -5.4392   -1.1432 C   0  0  0  0  0  0  0  0  0  0  0  0
    9.8055   -4.6920   -0.9584 C   0  0  0  0  0  0  0  0  0  0  0  0
   11.0517   -5.2140   -1.3530 C   0  0  0  0  0  0  0  0  0  0  0  0
   12.2123   -4.4565   -1.2379 C   0  0  0  0  0  0  0  0  0  0  0  0
   12.1392   -3.1761   -0.7138 C   0  0  0  0  0  0  0  0  0  0  0  0
   10.9009   -2.6478   -0.3294 C   0  0  0  0  0  0  0  0  0  0  0  0
    9.6887   -3.3870   -0.4187 C   0  0  0  0  0  0  0  0  0  0  0  0
    7.0009   -0.8363    0.3619 C   0  0  0  0  0  0  0  0  0  0  0  0
    5.9945   -1.1253   -0.2737 O   0  0  0  0  0  0  0  0  0  0  0  0
    6.2661    1.2297    1.8131 C   0  0  0  0  0  0  0  0  0  0  0  0
    1.7991   -2.7162    0.4842 H   0  0  0  0  0  0  0  0  0  0  0  0
    1.7851   -1.8812    2.0675 H   0  0  0  0  0  0  0  0  0  0  0  0
    3.2265   -2.8047    1.5606 H   0  0  0  0  0  0  0  0  0  0  0  0
    3.2489   -1.0951   -0.3875 H   0  0  0  0  0  0  0  0  0  0  0  0
    3.3289    1.7144    0.1635 H   0  0  0  0  0  0  0  0  0  0  0  0
    4.5977    0.6805   -0.4671 H   0  0  0  0  0  0  0  0  0  0  0  0
    6.0412    3.8274    0.8789 H   0  0  0  0  0  0  0  0  0  0  0  0
    4.8938    3.3838   -0.3675 H   0  0  0  0  0  0  0  0  0  0  0  0
    6.5458    4.1682   -2.0221 H   0  0  0  0  0  0  0  0  0  0  0  0
    8.4409    3.5562   -3.4729 H   0  0  0  0  0  0  0  0  0  0  0  0
    9.4070    0.2792   -0.9022 H   0  0  0  0  0  0  0  0  0  0  0  0
    8.3842    0.4869    2.8929 H   0  0  0  0  0  0  0  0  0  0  0  0
    9.4487    0.8598    1.5549 H   0  0  0  0  0  0  0  0  0  0  0  0
    8.4001   -1.7606    2.5384 H   0  0  0  0  0  0  0  0  0  0  0  0
    9.9164   -1.4233    1.7120 H   0  0  0  0  0  0  0  0  0  0  0  0
    6.2679   -3.3825   -0.3753 H   0  0  0  0  0  0  0  0  0  0  0  0
    8.6878   -6.4674   -1.4942 H   0  0  0  0  0  0  0  0  0  0  0  0
   11.1177   -6.2051   -1.7985 H   0  0  0  0  0  0  0  0  0  0  0  0
   13.1628   -4.8539   -1.5843 H   0  0  0  0  0  0  0  0  0  0  0  0
   13.0383   -2.5699   -0.6306 H   0  0  0  0  0  0  0  0  0  0  0  0
   10.9027   -1.6105   -0.0120 H   0  0  0  0  0  0  0  0  0  0  0  0
    6.7669    2.0020    2.4213 H   0  0  0  0  0  0  0  0  0  0  0  0
    5.8992    0.5200    2.5592 H   0  0  0  0  0  0  0  0  0  0  0  0
  1  2  1  0  0  0  0
  1 32  1  0  0  0  0
  1 33  1  0  0  0  0
  1 34  1  0  0  0  0
  2  3  1  0  0  0  0
  2 35  1  0  0  0  0
  3  4  2  0  0  0  0
  3  5  1  0  0  0  0
  5  6  1  0  0  0  0
  5 36  1  0  0  0  0
  5 37  1  0  0  0  0
  6  7  1  0  0  0  0
  6 31  1  0  0  0  0
  7  8  1  0  0  0  0
  7 38  1  0  0  0  0
  7 39  1  0  0  0  0
  8  9  1  0  0  0  0
  8 14  2  0  0  0  0
  9 10  2  0  0  0  0
  9 40  1  0  0  0  0
 10 11  1  0  0  0  0
 10 41  1  0  0  0  0
 11 12  1  0  0  0  0
 11 13  2  0  0  0  0
 13 14  1  0  0  0  0
 13 42  1  0  0  0  0
 14 15  1  0  0  0  0
 15 16  1  0  0  0  0
 15 29  1  0  0  0  0
 15 31  1  0  0  0  0
 16 17  1  0  0  0  0
 16 43  1  0  0  0  0
 16 44  1  0  0  0  0
 17 18  1  0  0  0  0
 17 45  1  0  0  0  0
 17 46  1  0  0  0  0
 18 19  1  0  0  0  0
 18 29  1  0  0  0  0
 19 20  1  0  0  0  0
 19 28  2  0  0  0  0
 20 21  2  0  0  0  0
 20 47  1  0  0  0  0
 21 22  1  0  0  0  0
 22 23  2  0  0  0  0
 22 48  1  0  0  0  0
 23 24  1  0  0  0  0
 23 28  1  0  0  0  0
 24 25  2  0  0  0  0
 24 49  1  0  0  0  0
 25 26  1  0  0  0  0
 25 50  1  0  0  0  0
 26 27  2  0  0  0  0
 26 51  1  0  0  0  0
 27 28  1  0  0  0  0
 27 52  1  0  0  0  0
 29 30  2  0  0  0  0
 31 53  1  0  0  0  0
 31 54  1  0  0  0  0
M  END
$$$$
