
 OpenBabel07202414123D

 66 69  0  0  1  0  0  0  0  0999 V2000
    3.4043   -0.7046   -0.6345 C   0  0  0  0  0  0  0  0  0  0  0  0
    2.4213   -0.1950    0.4495 C   0  0  0  0  0  0  0  0  0  0  0  0
    0.9892   -0.3322   -0.1026 C   0  0  0  0  0  0  0  0  0  0  0  0
    2.5651   -1.1713    1.6434 C   0  0  0  0  0  0  0  0  0  0  0  0
    2.6997    1.2732    0.8482 C   0  0  0  0  0  0  0  0  0  0  0  0
    3.2897    2.1836   -0.0465 C   0  0  0  0  0  0  0  0  0  0  0  0
    3.6149    3.5040    0.3294 C   0  0  0  0  0  0  0  0  0  0  0  0
    3.3576    3.9697    1.6193 C   0  0  0  0  0  0  0  0  0  0  0  0
    3.7914    5.2833    2.0432 N   0  0  0  0  0  0  0  0  0  0  0  0
    4.6084    5.3091    3.2993 C   0  0  3  0  0  0  0  0  0  0  0  0
    6.0943    5.6996    2.9714 C   0  0  0  0  0  0  0  0  0  0  0  0
    6.4288    6.6846    2.3157 O   0  0  0  0  0  0  0  0  0  0  0  0
    7.0776    4.8037    3.3751 N   0  0  0  0  0  0  0  0  0  0  0  0
    8.4674    5.0412    2.9855 C   0  0  0  0  0  0  0  0  0  0  0  0
    9.3965    3.8911    3.3687 C   0  0  0  0  0  0  0  0  0  0  0  0
   10.8410    4.1213    2.9869 C   0  0  0  0  0  0  0  0  0  0  0  0
   11.7211    4.7621    3.8731 C   0  0  0  0  0  0  0  0  0  0  0  0
   13.0742    4.9214    3.5495 C   0  0  0  0  0  0  0  0  0  0  0  0
   13.5594    4.4501    2.3316 C   0  0  0  0  0  0  0  0  0  0  0  0
   12.6878    3.8394    1.4374 C   0  0  0  0  0  0  0  0  0  0  0  0
   13.1490    3.3885    0.2659 F   0  0  0  0  0  0  0  0  0  0  0  0
   11.3376    3.6778    1.7512 C   0  0  0  0  0  0  0  0  0  0  0  0
    3.9582    5.9333    4.5290 C   0  0  0  0  0  0  0  0  0  0  0  0
    2.6609    6.4712    4.5239 C   0  0  0  0  0  0  0  0  0  0  0  0
    2.0851    6.9584    5.6943 C   0  0  0  0  0  0  0  0  0  0  0  0
    2.8023    6.8417    6.8676 C   0  0  0  0  0  0  0  0  0  0  0  0
    4.0464    6.3225    6.9323 N   0  0  0  0  0  0  0  0  0  0  0  0
    4.5977    5.9008    5.7663 C   0  0  0  0  0  0  0  0  0  0  0  0
    3.5874    6.3991    1.1835 C   0  0  0  0  0  0  0  0  0  0  0  0
    3.0144    6.2696    0.0946 O   0  0  0  0  0  0  0  0  0  0  0  0
    4.0179    7.7648    1.5687 C   0  0  0  0  0  0  0  0  0  0  0  0
    4.2778    8.7519    0.6290 C   0  0  0  0  0  0  0  0  0  0  0  0
    4.7885   10.2069    1.3795 S   0  0  0  0  0  0  0  0  0  0  0  0
    4.5934    9.4548    2.9028 C   0  0  0  0  0  0  0  0  0  0  0  0
    4.1655    8.2143    2.8791 N   0  0  0  0  0  0  0  0  0  0  0  0
    2.7090    3.0947    2.5024 C   0  0  0  0  0  0  0  0  0  0  0  0
    2.3704    1.7800    2.1166 C   0  0  0  0  0  0  0  0  0  0  0  0
    3.2331   -1.7641   -0.8615 H   0  0  0  0  0  0  0  0  0  0  0  0
    4.4448   -0.6016   -0.3046 H   0  0  0  0  0  0  0  0  0  0  0  0
    3.2933   -0.1673   -1.5822 H   0  0  0  0  0  0  0  0  0  0  0  0
    0.7810   -1.3695   -0.3965 H   0  0  0  0  0  0  0  0  0  0  0  0
    0.8349    0.2955   -0.9870 H   0  0  0  0  0  0  0  0  0  0  0  0
    0.2396   -0.0490    0.6447 H   0  0  0  0  0  0  0  0  0  0  0  0
    2.4112   -2.2098    1.3223 H   0  0  0  0  0  0  0  0  0  0  0  0
    1.8279   -0.9815    2.4303 H   0  0  0  0  0  0  0  0  0  0  0  0
    3.5637   -1.1100    2.0905 H   0  0  0  0  0  0  0  0  0  0  0  0
    3.5306    1.8933   -1.0658 H   0  0  0  0  0  0  0  0  0  0  0  0
    4.1048    4.1354   -0.4046 H   0  0  0  0  0  0  0  0  0  0  0  0
    4.6999    4.2554    3.6057 H   0  0  0  0  0  0  0  0  0  0  0  0
    6.8429    3.9836    3.9189 H   0  0  0  0  0  0  0  0  0  0  0  0
    8.7864    5.9768    3.4603 H   0  0  0  0  0  0  0  0  0  0  0  0
    8.4947    5.2067    1.9003 H   0  0  0  0  0  0  0  0  0  0  0  0
    9.0462    2.9614    2.9024 H   0  0  0  0  0  0  0  0  0  0  0  0
    9.3370    3.7149    4.4499 H   0  0  0  0  0  0  0  0  0  0  0  0
   11.3637    5.1296    4.8335 H   0  0  0  0  0  0  0  0  0  0  0  0
   13.7492    5.4018    4.2534 H   0  0  0  0  0  0  0  0  0  0  0  0
   14.6082    4.5504    2.0738 H   0  0  0  0  0  0  0  0  0  0  0  0
   10.6892    3.1892    1.0287 H   0  0  0  0  0  0  0  0  0  0  0  0
    2.0936    6.5607    3.6009 H   0  0  0  0  0  0  0  0  0  0  0  0
    1.1017    7.4152    5.6816 H   0  0  0  0  0  0  0  0  0  0  0  0
    2.3806    7.1706    7.8135 H   0  0  0  0  0  0  0  0  0  0  0  0
    5.6010    5.5008    5.8823 H   0  0  0  0  0  0  0  0  0  0  0  0
    4.2072    8.6709   -0.4465 H   0  0  0  0  0  0  0  0  0  0  0  0
    4.8057    9.9753    3.8289 H   0  0  0  0  0  0  0  0  0  0  0  0
    2.4153    3.4279    3.4948 H   0  0  0  0  0  0  0  0  0  0  0  0
    1.8408    1.1637    2.8399 H   0  0  0  0  0  0  0  0  0  0  0  0
  1  2  1  0  0  0  0
  1 38  1  0  0  0  0
  1 39  1  0  0  0  0
  1 40  1  0  0  0  0
  2  3  1  0  0  0  0
  2  4  1  0  0  0  0
  2  5  1  0  0  0  0
  3 41  1  0  0  0  0
  3 42  1  0  0  0  0
  3 43  1  0  0  0  0
  4 44  1  0  0  0  0
  4 45  1  0  0  0  0
  4 46  1  0  0  0  0
  5  6  1  0  0  0  0
  5 37  2  0  0  0  0
  6  7  2  0  0  0  0
  6 47  1  0  0  0  0
  7  8  1  0  0  0  0
  7 48  1  0  0  0  0
  8  9  1  0  0  0  0
  8 36  2  0  0  0  0
  9 10  1  0  0  0  0
  9 29  1  0  0  0  0
 10 11  1  0  0  0  0
 10 23  1  0  0  0  0
 10 49  1  0  0  0  0
 11 12  2  0  0  0  0
 11 13  1  0  0  0  0
 13 14  1  0  0  0  0
 13 50  1  0  0  0  0
 14 15  1  0  0  0  0
 14 51  1  0  0  0  0
 14 52  1  0  0  0  0
 15 16  1  0  0  0  0
 15 53  1  0  0  0  0
 15 54  1  0  0  0  0
 16 17  1  0  0  0  0
 16 22  2  0  0  0  0
 17 18  2  0  0  0  0
 17 55  1  0  0  0  0
 18 19  1  0  0  0  0
 18 56  1  0  0  0  0
 19 20  2  0  0  0  0
 19 57  1  0  0  0  0
 20 21  1  0  0  0  0
 20 22  1  0  0  0  0
 22 58  1  0  0  0  0
 23 24  1  0  0  0  0
 23 28  2  0  0  0  0
 24 25  2  0  0  0  0
 24 59  1  0  0  0  0
 25 26  1  0  0  0  0
 25 60  1  0  0  0  0
 26 27  2  0  0  0  0
 26 61  1  0  0  0  0
 27 28  1  0  0  0  0
 28 62  1  0  0  0  0
 29 30  2  0  0  0  0
 29 31  1  0  0  0  0
 31 32  2  0  0  0  0
 31 35  1  0  0  0  0
 32 33  1  0  0  0  0
 32 63  1  0  0  0  0
 33 34  1  0  0  0  0
 34 35  2  0  0  0  0
 34 64  1  0  0  0  0
 36 37  1  0  0  0  0
 36 65  1  0  0  0  0
 37 66  1  0  0  0  0
M  END
$$$$
