
 OpenBabel07202414153D

 39 42  0  0  1  0  0  0  0  0999 V2000
    1.0483    0.0660    0.1623 C   0  0  0  0  0  0  0  0  0  0  0  0
    2.5769   -0.0094    0.0728 C   0  0  2  0  0  0  0  0  0  0  0  0
    3.1070    1.1722   -0.7748 C   0  0  0  0  0  0  0  0  0  0  0  0
    4.4938    0.9228   -1.3725 C   0  0  0  0  0  0  0  0  0  0  0  0
    4.3917   -0.3494   -2.1646 C   0  0  2  0  0  0  0  0  0  0  0  0
    4.0952   -1.4624   -1.3123 N   0  0  0  0  0  0  0  0  0  0  0  0
    2.9836   -1.4238   -0.3933 C   0  0  0  0  0  0  0  0  0  0  0  0
    4.5788   -2.6386   -1.8860 C   0  0  0  0  0  0  0  0  0  0  0  0
    4.1698   -3.7466   -1.5832 O   0  0  0  0  0  0  0  0  0  0  0  0
    5.4907   -2.2701   -2.8512 N   0  0  0  0  0  0  0  0  0  0  0  0
    5.9694   -3.1303   -3.8737 C   0  0  0  0  0  0  0  0  0  0  0  0
    5.8367   -2.7146   -5.2052 C   0  0  0  0  0  0  0  0  0  0  0  0
    6.1674   -3.4545   -6.2848 N   0  0  0  0  0  0  0  0  0  0  0  0
    6.6730   -4.6744   -6.0330 C   0  0  0  0  0  0  0  0  0  0  0  0
    6.8590   -5.2105   -4.7487 C   0  0  0  0  0  0  0  0  0  0  0  0
    7.3941   -6.4978   -4.5750 C   0  0  0  0  0  0  0  0  0  0  0  0
    7.5683   -7.0303   -3.2976 C   0  0  0  0  0  0  0  0  0  0  0  0
    7.2291   -6.2760   -2.1857 C   0  0  0  0  0  0  0  0  0  0  0  0
    6.7194   -4.9861   -2.3494 C   0  0  0  0  0  0  0  0  0  0  0  0
    6.4970   -4.4252   -3.6303 C   0  0  0  0  0  0  0  0  0  0  0  0
    5.5913   -0.8932   -2.9096 C   0  0  0  0  0  0  0  0  0  0  0  0
    6.3964   -0.2231   -3.5367 O   0  0  0  0  0  0  0  0  0  0  0  0
    0.7176    1.0514    0.5058 H   0  0  0  0  0  0  0  0  0  0  0  0
    0.6618   -0.6860    0.8583 H   0  0  0  0  0  0  0  0  0  0  0  0
    0.5913   -0.1193   -0.8167 H   0  0  0  0  0  0  0  0  0  0  0  0
    2.9778    0.1259    1.0868 H   0  0  0  0  0  0  0  0  0  0  0  0
    3.1300    2.0803   -0.1599 H   0  0  0  0  0  0  0  0  0  0  0  0
    2.4080    1.3788   -1.5966 H   0  0  0  0  0  0  0  0  0  0  0  0
    5.2453    0.8432   -0.5778 H   0  0  0  0  0  0  0  0  0  0  0  0
    4.7850    1.7605   -2.0156 H   0  0  0  0  0  0  0  0  0  0  0  0
    3.5977   -0.2683   -2.9213 H   0  0  0  0  0  0  0  0  0  0  0  0
    3.2795   -2.0210    0.4794 H   0  0  0  0  0  0  0  0  0  0  0  0
    2.1473   -1.9624   -0.8550 H   0  0  0  0  0  0  0  0  0  0  0  0
    5.3771   -1.7600   -5.4597 H   0  0  0  0  0  0  0  0  0  0  0  0
    6.9291   -5.2423   -6.9222 H   0  0  0  0  0  0  0  0  0  0  0  0
    7.6730   -7.1013   -5.4333 H   0  0  0  0  0  0  0  0  0  0  0  0
    7.9593   -8.0368   -3.1724 H   0  0  0  0  0  0  0  0  0  0  0  0
    7.3459   -6.6861   -1.1854 H   0  0  0  0  0  0  0  0  0  0  0  0
    6.4814   -4.4321   -1.4446 H   0  0  0  0  0  0  0  0  0  0  0  0
  1  2  1  0  0  0  0
  1 23  1  0  0  0  0
  1 24  1  0  0  0  0
  1 25  1  0  0  0  0
  2  3  1  0  0  0  0
  2  7  1  0  0  0  0
  2 26  1  1  0  0  0
  3  4  1  0  0  0  0
  3 27  1  0  0  0  0
  3 28  1  0  0  0  0
  4  5  1  0  0  0  0
  4 29  1  0  0  0  0
  4 30  1  0  0  0  0
  5  6  1  0  0  0  0
  5 21  1  0  0  0  0
  5 31  1  6  0  0  0
  6  7  1  0  0  0  0
  6  8  1  0  0  0  0
  7 32  1  0  0  0  0
  7 33  1  0  0  0  0
  8  9  2  0  0  0  0
  8 10  1  0  0  0  0
 10 11  1  0  0  0  0
 10 21  1  0  0  0  0
 11 12  1  0  0  0  0
 11 20  2  0  0  0  0
 12 13  2  0  0  0  0
 12 34  1  0  0  0  0
 13 14  1  0  0  0  0
 14 15  2  0  0  0  0
 14 35  1  0  0  0  0
 15 16  1  0  0  0  0
 15 20  1  0  0  0  0
 16 17  2  0  0  0  0
 16 36  1  0  0  0  0
 17 18  1  0  0  0  0
 17 37  1  0  0  0  0
 18 19  2  0  0  0  0
 18 38  1  0  0  0  0
 19 20  1  0  0  0  0
 19 39  1  0  0  0  0
 21 22  2  0  0  0  0
M  END
$$$$
