
 OpenBabel07202414133D

 50 53  0  0  1  0  0  0  0  0999 V2000
    3.4608   -1.3092    0.3997 C   0  0  0  0  0  0  0  0  0  0  0  0
    3.7725    0.0532    0.8193 N   0  0  0  0  0  0  0  0  0  0  0  0
    3.4324    0.4224    2.1875 C   0  0  0  0  0  0  0  0  0  0  0  0
    3.9669    1.0586   -0.1238 C   0  0  0  0  0  0  0  0  0  0  0  0
    3.7174    0.8648   -1.4866 C   0  0  0  0  0  0  0  0  0  0  0  0
    3.9725    1.8581   -2.4444 C   0  0  0  0  0  0  0  0  0  0  0  0
    4.5752    3.0706   -2.0943 C   0  0  0  0  0  0  0  0  0  0  0  0
    4.7951    3.2949   -0.7292 C   0  0  0  0  0  0  0  0  0  0  0  0
    4.4736    2.3189    0.2294 C   0  0  0  0  0  0  0  0  0  0  0  0
    5.1399    4.0556   -3.1254 C   0  0  3  0  0  0  0  0  0  0  0  0
    5.1079    3.5982   -4.6101 C   0  0  0  0  0  0  0  0  0  0  0  0
    5.8366    2.3048   -4.9241 C   0  0  0  0  0  0  0  0  0  0  0  0
    5.3818    1.3518   -5.9013 C   0  0  0  0  0  0  0  0  0  0  0  0
    6.1674    0.2218   -5.9547 C   0  0  0  0  0  0  0  0  0  0  0  0
    7.4781    0.3039   -4.8651 S   0  0  0  0  0  0  0  0  0  0  0  0
    6.9966    1.8521   -4.3200 C   0  0  0  0  0  0  0  0  0  0  0  0
    4.6109    5.5028   -3.0705 C   0  0  0  0  0  0  0  0  0  0  0  0
    5.1802    6.3876   -3.7126 O   0  0  0  0  0  0  0  0  0  0  0  0
    3.4892    5.7358   -2.3174 N   0  0  0  0  0  0  0  0  0  0  0  0
    2.9482    6.9790   -2.2034 N   0  0  0  0  0  0  0  0  0  0  0  0
    2.5439    7.4944   -1.0034 C   0  0  0  0  0  0  0  0  0  0  0  0
    1.6512    8.4464   -1.1643 N   0  0  0  0  0  0  0  0  0  0  0  0
    1.5077    8.5710   -2.5304 C   0  0  0  0  0  0  0  0  0  0  0  0
    2.3468    7.6887   -3.2117 C   0  0  0  0  0  0  0  0  0  0  0  0
    2.4328    7.6679   -4.6104 C   0  0  0  0  0  0  0  0  0  0  0  0
    1.6176    8.5596   -5.3174 C   0  0  0  0  0  0  0  0  0  0  0  0
    0.7284    9.4077   -4.6583 C   0  0  0  0  0  0  0  0  0  0  0  0
    0.6609    9.4221   -3.2601 C   0  0  0  0  0  0  0  0  0  0  0  0
    3.4257   -1.9937    1.2547 H   0  0  0  0  0  0  0  0  0  0  0  0
    4.2368   -1.6962   -0.2714 H   0  0  0  0  0  0  0  0  0  0  0  0
    2.4882   -1.3590   -0.1012 H   0  0  0  0  0  0  0  0  0  0  0  0
    3.1585   -0.4534    2.7862 H   0  0  0  0  0  0  0  0  0  0  0  0
    2.5775    1.1073    2.2058 H   0  0  0  0  0  0  0  0  0  0  0  0
    4.2842    0.8889    2.6933 H   0  0  0  0  0  0  0  0  0  0  0  0
    3.3299   -0.0822   -1.8528 H   0  0  0  0  0  0  0  0  0  0  0  0
    3.7466    1.6040   -3.4760 H   0  0  0  0  0  0  0  0  0  0  0  0
    5.2685    4.2136   -0.3869 H   0  0  0  0  0  0  0  0  0  0  0  0
    4.7022    2.5462    1.2668 H   0  0  0  0  0  0  0  0  0  0  0  0
    6.2006    4.1572   -2.8494 H   0  0  0  0  0  0  0  0  0  0  0  0
    5.5472    4.3729   -5.2524 H   0  0  0  0  0  0  0  0  0  0  0  0
    4.0610    3.5048   -4.9322 H   0  0  0  0  0  0  0  0  0  0  0  0
    4.4996    1.4787   -6.5178 H   0  0  0  0  0  0  0  0  0  0  0  0
    6.0342   -0.6508   -6.5796 H   0  0  0  0  0  0  0  0  0  0  0  0
    7.5798    2.3353   -3.5483 H   0  0  0  0  0  0  0  0  0  0  0  0
    3.1085    5.0453   -1.6819 H   0  0  0  0  0  0  0  0  0  0  0  0
    2.8933    7.1189   -0.0505 H   0  0  0  0  0  0  0  0  0  0  0  0
    3.1327    7.0245   -5.1295 H   0  0  0  0  0  0  0  0  0  0  0  0
    1.6838    8.5921   -6.4034 H   0  0  0  0  0  0  0  0  0  0  0  0
    0.0897   10.0736   -5.2325 H   0  0  0  0  0  0  0  0  0  0  0  0
   -0.0286   10.0794   -2.7412 H   0  0  0  0  0  0  0  0  0  0  0  0
  1  2  1  0  0  0  0
  1 29  1  0  0  0  0
  1 30  1  0  0  0  0
  1 31  1  0  0  0  0
  2  3  1  0  0  0  0
  2  4  1  0  0  0  0
  3 32  1  0  0  0  0
  3 33  1  0  0  0  0
  3 34  1  0  0  0  0
  4  5  1  0  0  0  0
  4  9  2  0  0  0  0
  5  6  2  0  0  0  0
  5 35  1  0  0  0  0
  6  7  1  0  0  0  0
  6 36  1  0  0  0  0
  7  8  2  0  0  0  0
  7 10  1  0  0  0  0
  8  9  1  0  0  0  0
  8 37  1  0  0  0  0
  9 38  1  0  0  0  0
 10 11  1  0  0  0  0
 10 17  1  0  0  0  0
 10 39  1  0  0  0  0
 11 12  1  0  0  0  0
 11 40  1  0  0  0  0
 11 41  1  0  0  0  0
 12 13  1  0  0  0  0
 12 16  2  0  0  0  0
 13 14  2  0  0  0  0
 13 42  1  0  0  0  0
 14 15  1  0  0  0  0
 14 43  1  0  0  0  0
 15 16  1  0  0  0  0
 16 44  1  0  0  0  0
 17 18  2  0  0  0  0
 17 19  1  0  0  0  0
 19 20  1  0  0  0  0
 19 45  1  0  0  0  0
 20 21  1  0  0  0  0
 20 24  1  0  0  0  0
 21 22  2  0  0  0  0
 21 46  1  0  0  0  0
 22 23  1  0  0  0  0
 23 24  1  0  0  0  0
 23 28  2  0  0  0  0
 24 25  2  0  0  0  0
 25 26  1  0  0  0  0
 25 47  1  0  0  0  0
 26 27  2  0  0  0  0
 26 48  1  0  0  0  0
 27 28  1  0  0  0  0
 27 49  1  0  0  0  0
 28 50  1  0  0  0  0
M  END
$$$$
