
 OpenBabel07202414133D

 44 48  0  0  1  0  0  0  0  0999 V2000
    1.3760    0.1475    0.3684 C   0  0  0  0  0  0  0  0  0  0  0  0
    2.8146    0.2484    0.2336 N   0  0  0  0  0  0  0  0  0  0  0  0
    3.4937    1.4022    0.6138 C   0  0  0  0  0  0  0  0  0  0  0  0
    2.9776    2.3462    1.1949 O   0  0  0  0  0  0  0  0  0  0  0  0
    4.7986    1.3039    0.1997 N   0  0  0  0  0  0  0  0  0  0  0  0
    5.6811    2.4038    0.0962 C   0  0  0  0  0  0  0  0  0  0  0  0
    5.2146    3.5826   -0.4893 C   0  0  0  0  0  0  0  0  0  0  0  0
    6.0027    4.6093   -0.8685 N   0  0  0  0  0  0  0  0  0  0  0  0
    7.3151    4.4906   -0.5776 C   0  0  0  0  0  0  0  0  0  0  0  0
    7.8789    3.4276    0.1297 C   0  0  0  0  0  0  0  0  0  0  0  0
    9.2262    3.4550    0.5294 C   0  0  0  0  0  0  0  0  0  0  0  0
    9.7641    2.4138    1.2818 C   0  0  0  0  0  0  0  0  0  0  0  0
    8.9758    1.3132    1.5964 C   0  0  0  0  0  0  0  0  0  0  0  0
    7.6407    1.2628    1.1797 C   0  0  0  0  0  0  0  0  0  0  0  0
    7.0507    2.3300    0.4587 C   0  0  0  0  0  0  0  0  0  0  0  0
    4.9506    0.2019   -0.6105 C   0  0  0  0  0  0  0  0  0  0  0  0
    5.9580   -0.1129   -1.2434 O   0  0  0  0  0  0  0  0  0  0  0  0
    3.5972   -0.5414   -0.7142 C   0  0  3  0  0  0  0  0  0  0  0  0
    3.1208   -0.3938   -2.1681 C   0  0  0  0  0  0  0  0  0  0  0  0
    2.0630   -1.4307   -2.4943 C   0  0  0  0  0  0  0  0  0  0  0  0
    2.5261   -2.7646   -2.3025 O   0  0  0  0  0  0  0  0  0  0  0  0
    3.1948   -2.9996   -1.1341 C   0  0  0  0  0  0  0  0  0  0  0  0
    3.3853   -4.3474   -0.8191 C   0  0  0  0  0  0  0  0  0  0  0  0
    4.1127   -4.7108    0.3135 C   0  0  0  0  0  0  0  0  0  0  0  0
    4.6378   -3.7210    1.1369 C   0  0  0  0  0  0  0  0  0  0  0  0
    5.5786   -4.1561    2.5094 Cl  0  0  0  0  0  0  0  0  0  0  0  0
    4.4330   -2.3733    0.8409 C   0  0  0  0  0  0  0  0  0  0  0  0
    3.7260   -1.9949   -0.3167 C   0  0  0  0  0  0  0  0  0  0  0  0
    1.0357    0.7187    1.2368 H   0  0  0  0  0  0  0  0  0  0  0  0
    1.0856   -0.8982    0.4880 H   0  0  0  0  0  0  0  0  0  0  0  0
    0.9058    0.5759   -0.5219 H   0  0  0  0  0  0  0  0  0  0  0  0
    4.1643    3.7208   -0.7320 H   0  0  0  0  0  0  0  0  0  0  0  0
    7.9257    5.3183   -0.9294 H   0  0  0  0  0  0  0  0  0  0  0  0
    9.8550    4.3097    0.2889 H   0  0  0  0  0  0  0  0  0  0  0  0
   10.7941    2.4670    1.6264 H   0  0  0  0  0  0  0  0  0  0  0  0
    9.3952    0.4960    2.1789 H   0  0  0  0  0  0  0  0  0  0  0  0
    7.0549    0.3899    1.4572 H   0  0  0  0  0  0  0  0  0  0  0  0
    3.9651   -0.5585   -2.8518 H   0  0  0  0  0  0  0  0  0  0  0  0
    2.7459    0.6168   -2.3681 H   0  0  0  0  0  0  0  0  0  0  0  0
    1.7868   -1.3376   -3.5507 H   0  0  0  0  0  0  0  0  0  0  0  0
    1.1414   -1.2900   -1.9219 H   0  0  0  0  0  0  0  0  0  0  0  0
    2.9799   -5.1176   -1.4713 H   0  0  0  0  0  0  0  0  0  0  0  0
    4.2757   -5.7613    0.5371 H   0  0  0  0  0  0  0  0  0  0  0  0
    4.8624   -1.6203    1.4978 H   0  0  0  0  0  0  0  0  0  0  0  0
  1  2  1  0  0  0  0
  1 29  1  0  0  0  0
  1 30  1  0  0  0  0
  1 31  1  0  0  0  0
  2  3  1  0  0  0  0
  2 18  1  0  0  0  0
  3  4  2  0  0  0  0
  3  5  1  0  0  0  0
  5  6  1  0  0  0  0
  5 16  1  0  0  0  0
  6  7  1  0  0  0  0
  6 15  2  0  0  0  0
  7  8  2  0  0  0  0
  7 32  1  0  0  0  0
  8  9  1  0  0  0  0
  9 10  2  0  0  0  0
  9 33  1  0  0  0  0
 10 11  1  0  0  0  0
 10 15  1  0  0  0  0
 11 12  2  0  0  0  0
 11 34  1  0  0  0  0
 12 13  1  0  0  0  0
 12 35  1  0  0  0  0
 13 14  2  0  0  0  0
 13 36  1  0  0  0  0
 14 15  1  0  0  0  0
 14 37  1  0  0  0  0
 16 17  2  0  0  0  0
 16 18  1  0  0  0  0
 18 19  1  0  0  0  0
 18 28  1  0  0  0  0
 19 20  1  0  0  0  0
 19 38  1  0  0  0  0
 19 39  1  0  0  0  0
 20 21  1  0  0  0  0
 20 40  1  0  0  0  0
 20 41  1  0  0  0  0
 21 22  1  0  0  0  0
 22 23  1  0  0  0  0
 22 28  2  0  0  0  0
 23 24  2  0  0  0  0
 23 42  1  0  0  0  0
 24 25  1  0  0  0  0
 24 43  1  0  0  0  0
 25 26  1  0  0  0  0
 25 27  2  0  0  0  0
 27 28  1  0  0  0  0
 27 44  1  0  0  0  0
M  END
$$$$
