
 OpenBabel07202414193D

 54 58  0  0  0  0  0  0  0  0999 V2000
    1.2210    0.2985   -0.2806 O   0  0  0  0  0  0  0  0  0  0  0  0
    2.4379    0.1177   -0.1220 C   0  0  0  0  0  0  0  0  0  0  0  0
    3.1545   -0.8791   -1.0248 C   0  0  0  0  0  0  0  0  0  0  0  0
    3.1939   -2.2108   -0.4633 N   0  0  0  0  0  0  0  0  0  0  0  0
    4.3865   -2.7924   -0.2164 N   0  0  0  0  0  0  0  0  0  0  0  0
    4.1519   -4.0183    0.2319 N   0  0  0  0  0  0  0  0  0  0  0  0
    2.7975   -4.2137    0.2443 C   0  0  0  0  0  0  0  0  0  0  0  0
    2.0385   -5.3233    0.6427 C   0  0  0  0  0  0  0  0  0  0  0  0
    0.6430   -5.2436    0.5571 C   0  0  0  0  0  0  0  0  0  0  0  0
    0.0218   -4.0976    0.0545 C   0  0  0  0  0  0  0  0  0  0  0  0
    0.7662   -2.9884   -0.3654 C   0  0  0  0  0  0  0  0  0  0  0  0
    2.1554   -3.0750   -0.2300 C   0  0  0  0  0  0  0  0  0  0  0  0
    3.1473    0.7802    0.8811 N   0  0  0  0  0  0  0  0  0  0  0  0
    2.4483    1.7787    1.7005 C   0  0  0  0  0  0  0  0  0  0  0  0
    1.8201    1.2233    2.9549 C   0  0  0  0  0  0  0  0  0  0  0  0
    1.2706   -0.0913    3.1478 C   0  0  0  0  0  0  0  0  0  0  0  0
    0.6377   -0.2377    4.3632 C   0  0  0  0  0  0  0  0  0  0  0  0
    0.7469    1.1717    5.3171 S   0  0  0  0  0  0  0  0  0  0  0  0
    1.6135    1.9899    4.0918 C   0  0  0  0  0  0  0  0  0  0  0  0
    4.5603    0.8741    0.8546 C   0  0  0  0  0  0  0  0  0  0  0  0
    5.2197    1.4274   -0.2428 C   0  0  0  0  0  0  0  0  0  0  0  0
    6.6132    1.3311   -0.3503 C   0  0  0  0  0  0  0  0  0  0  0  0
    7.3847    0.6978    0.6322 C   0  0  0  0  0  0  0  0  0  0  0  0
    8.7456    0.5045    0.5037 N   0  0  0  0  0  0  0  0  0  0  0  0
    9.6126    1.3000   -0.3795 C   0  0  0  0  0  0  0  0  0  0  0  0
   10.2266    0.4217   -1.4797 C   0  0  0  0  0  0  0  0  0  0  0  0
   10.9265   -0.7032   -0.9238 O   0  0  0  0  0  0  0  0  0  0  0  0
   10.0205   -1.5170   -0.1607 C   0  0  0  0  0  0  0  0  0  0  0  0
    9.3842   -0.7331    1.0013 C   0  0  0  0  0  0  0  0  0  0  0  0
    6.6958    0.2642    1.7808 C   0  0  0  0  0  0  0  0  0  0  0  0
    5.3020    0.3524    1.9059 C   0  0  0  0  0  0  0  0  0  0  0  0
    4.1692   -0.5849   -1.2852 H   0  0  0  0  0  0  0  0  0  0  0  0
    2.6100   -0.9428   -1.9734 H   0  0  0  0  0  0  0  0  0  0  0  0
    2.5272   -6.2153    1.0190 H   0  0  0  0  0  0  0  0  0  0  0  0
    0.0372   -6.0850    0.8865 H   0  0  0  0  0  0  0  0  0  0  0  0
   -1.0646   -4.0615   -0.0058 H   0  0  0  0  0  0  0  0  0  0  0  0
    0.2751   -2.1021   -0.7548 H   0  0  0  0  0  0  0  0  0  0  0  0
    1.6515    2.2383    1.1022 H   0  0  0  0  0  0  0  0  0  0  0  0
    3.1432    2.5863    1.9638 H   0  0  0  0  0  0  0  0  0  0  0  0
    1.2963   -0.8855    2.4107 H   0  0  0  0  0  0  0  0  0  0  0  0
    0.1073   -1.1043    4.7346 H   0  0  0  0  0  0  0  0  0  0  0  0
    1.9022    3.0206    4.2555 H   0  0  0  0  0  0  0  0  0  0  0  0
    4.6625    1.9029   -1.0451 H   0  0  0  0  0  0  0  0  0  0  0  0
    7.0710    1.7134   -1.2584 H   0  0  0  0  0  0  0  0  0  0  0  0
   10.4227    1.7025    0.2406 H   0  0  0  0  0  0  0  0  0  0  0  0
    9.1068    2.1629   -0.8227 H   0  0  0  0  0  0  0  0  0  0  0  0
   10.9523    1.0050   -2.0555 H   0  0  0  0  0  0  0  0  0  0  0  0
    9.4619    0.0577   -2.1761 H   0  0  0  0  0  0  0  0  0  0  0  0
   10.5920   -2.3638    0.2336 H   0  0  0  0  0  0  0  0  0  0  0  0
    9.2535   -1.9193   -0.8341 H   0  0  0  0  0  0  0  0  0  0  0  0
   10.1654   -0.4430    1.7134 H   0  0  0  0  0  0  0  0  0  0  0  0
    8.6910   -1.4023    1.5207 H   0  0  0  0  0  0  0  0  0  0  0  0
    7.2474   -0.1683    2.6156 H   0  0  0  0  0  0  0  0  0  0  0  0
    4.8186   -0.0453    2.7921 H   0  0  0  0  0  0  0  0  0  0  0  0
  1  2  2  0  0  0  0
  2  3  1  0  0  0  0
  2 13  1  0  0  0  0
  3  4  1  0  0  0  0
  3 32  1  0  0  0  0
  3 33  1  0  0  0  0
  4  5  1  0  0  0  0
  4 12  1  0  0  0  0
  5  6  2  0  0  0  0
  6  7  1  0  0  0  0
  7  8  1  0  0  0  0
  7 12  2  0  0  0  0
  8  9  2  0  0  0  0
  8 34  1  0  0  0  0
  9 10  1  0  0  0  0
  9 35  1  0  0  0  0
 10 11  2  0  0  0  0
 10 36  1  0  0  0  0
 11 12  1  0  0  0  0
 11 37  1  0  0  0  0
 13 14  1  0  0  0  0
 13 20  1  0  0  0  0
 14 15  1  0  0  0  0
 14 38  1  0  0  0  0
 14 39  1  0  0  0  0
 15 16  1  0  0  0  0
 15 19  2  0  0  0  0
 16 17  2  0  0  0  0
 16 40  1  0  0  0  0
 17 18  1  0  0  0  0
 17 41  1  0  0  0  0
 18 19  1  0  0  0  0
 19 42  1  0  0  0  0
 20 21  1  0  0  0  0
 20 31  2  0  0  0  0
 21 22  2  0  0  0  0
 21 43  1  0  0  0  0
 22 23  1  0  0  0  0
 22 44  1  0  0  0  0
 23 24  1  0  0  0  0
 23 30  2  0  0  0  0
 24 25  1  0  0  0  0
 24 29  1  0  0  0  0
 25 26  1  0  0  0  0
 25 45  1  0  0  0  0
 25 46  1  0  0  0  0
 26 27  1  0  0  0  0
 26 47  1  0  0  0  0
 26 48  1  0  0  0  0
 27 28  1  0  0  0  0
 28 29  1  0  0  0  0
 28 49  1  0  0  0  0
 28 50  1  0  0  0  0
 29 51  1  0  0  0  0
 29 52  1  0  0  0  0
 30 31  1  0  0  0  0
 30 53  1  0  0  0  0
 31 54  1  0  0  0  0
M  END
$$$$
