
 OpenBabel07202414193D

 44 47  0  0  0  0  0  0  0  0999 V2000
    1.3040    0.5046    0.3176 O   0  0  0  0  0  0  0  0  0  0  0  0
    2.2414   -0.0078   -0.2956 C   0  0  0  0  0  0  0  0  0  0  0  0
    2.5732   -1.4858   -0.1489 C   0  0  0  0  0  0  0  0  0  0  0  0
    1.8407   -2.3975   -1.1107 C   0  0  0  0  0  0  0  0  0  0  0  0
    2.5915   -3.1332   -2.0294 C   0  0  0  0  0  0  0  0  0  0  0  0
    2.0786   -3.9879   -2.9373 N   0  0  0  0  0  0  0  0  0  0  0  0
    0.7350   -4.1186   -2.9458 C   0  0  0  0  0  0  0  0  0  0  0  0
   -0.1327   -3.4499   -2.0841 C   0  0  0  0  0  0  0  0  0  0  0  0
   -1.5268   -3.6297   -2.1677 C   0  0  0  0  0  0  0  0  0  0  0  0
   -2.3841   -2.9637   -1.2953 C   0  0  0  0  0  0  0  0  0  0  0  0
   -1.8529   -2.1378   -0.3156 C   0  0  0  0  0  0  0  0  0  0  0  0
   -0.4690   -1.9642   -0.2199 C   0  0  0  0  0  0  0  0  0  0  0  0
    0.4302   -2.5846   -1.1184 C   0  0  0  0  0  0  0  0  0  0  0  0
    3.0280    0.7440   -1.1235 N   0  0  0  0  0  0  0  0  0  0  0  0
    2.9889    2.1884   -1.2919 C   0  0  0  0  0  0  0  0  0  0  0  0
    4.5231    2.1390   -1.4239 C   0  0  0  0  0  0  0  0  0  0  0  0
    5.2787    2.6302   -0.1898 C   0  0  0  0  0  0  0  0  0  0  0  0
    6.7392    2.4709   -0.5835 C   0  0  0  0  0  0  0  0  0  0  0  0
    7.7832    2.9399    0.4689 C   0  0  0  0  0  0  0  0  0  0  0  0
    8.6639    3.3844   -0.7184 C   0  0  0  0  0  0  0  0  0  0  0  0
    7.3582    3.5486   -1.5221 C   0  0  0  0  0  0  0  0  0  0  0  0
    4.3894    0.6039   -1.5954 C   0  0  0  0  0  0  0  0  0  0  0  0
    2.3464   -1.7874    0.8814 H   0  0  0  0  0  0  0  0  0  0  0  0
    3.6556   -1.6249   -0.2462 H   0  0  0  0  0  0  0  0  0  0  0  0
    3.6753   -3.0604   -2.0599 H   0  0  0  0  0  0  0  0  0  0  0  0
    0.3579   -4.8099   -3.6957 H   0  0  0  0  0  0  0  0  0  0  0  0
   -1.9547   -4.2871   -2.9214 H   0  0  0  0  0  0  0  0  0  0  0  0
   -3.4598   -3.0924   -1.3760 H   0  0  0  0  0  0  0  0  0  0  0  0
   -2.5084   -1.6178    0.3787 H   0  0  0  0  0  0  0  0  0  0  0  0
   -0.1093   -1.3252    0.5811 H   0  0  0  0  0  0  0  0  0  0  0  0
    2.5940    2.7391   -0.4343 H   0  0  0  0  0  0  0  0  0  0  0  0
    2.4516    2.4802   -2.2003 H   0  0  0  0  0  0  0  0  0  0  0  0
    4.8495    2.6531   -2.3388 H   0  0  0  0  0  0  0  0  0  0  0  0
    5.0403    2.0273    0.6936 H   0  0  0  0  0  0  0  0  0  0  0  0
    5.0353    3.6752    0.0317 H   0  0  0  0  0  0  0  0  0  0  0  0
    6.9709    1.4488   -0.9173 H   0  0  0  0  0  0  0  0  0  0  0  0
    8.2058    2.1536    1.0998 H   0  0  0  0  0  0  0  0  0  0  0  0
    7.4545    3.7697    1.1056 H   0  0  0  0  0  0  0  0  0  0  0  0
    9.3199    2.5945   -1.1031 H   0  0  0  0  0  0  0  0  0  0  0  0
    9.2507    4.2932   -0.5668 H   0  0  0  0  0  0  0  0  0  0  0  0
    7.4166    3.2817   -2.5800 H   0  0  0  0  0  0  0  0  0  0  0  0
    6.9108    4.5457   -1.4301 H   0  0  0  0  0  0  0  0  0  0  0  0
    5.0367    0.0038   -0.9521 H   0  0  0  0  0  0  0  0  0  0  0  0
    4.4450    0.2456   -2.6269 H   0  0  0  0  0  0  0  0  0  0  0  0
  1  2  2  0  0  0  0
  2  3  1  0  0  0  0
  2 14  1  0  0  0  0
  3  4  1  0  0  0  0
  3 23  1  0  0  0  0
  3 24  1  0  0  0  0
  4  5  1  0  0  0  0
  4 13  2  0  0  0  0
  5  6  2  0  0  0  0
  5 25  1  0  0  0  0
  6  7  1  0  0  0  0
  7  8  2  0  0  0  0
  7 26  1  0  0  0  0
  8  9  1  0  0  0  0
  8 13  1  0  0  0  0
  9 10  2  0  0  0  0
  9 27  1  0  0  0  0
 10 11  1  0  0  0  0
 10 28  1  0  0  0  0
 11 12  2  0  0  0  0
 11 29  1  0  0  0  0
 12 13  1  0  0  0  0
 12 30  1  0  0  0  0
 14 15  1  0  0  0  0
 14 22  1  0  0  0  0
 15 16  1  0  0  0  0
 15 31  1  0  0  0  0
 15 32  1  0  0  0  0
 16 17  1  0  0  0  0
 16 22  1  0  0  0  0
 16 33  1  0  0  0  0
 17 18  1  0  0  0  0
 17 34  1  0  0  0  0
 17 35  1  0  0  0  0
 18 19  1  0  0  0  0
 18 21  1  0  0  0  0
 18 36  1  0  0  0  0
 19 20  1  0  0  0  0
 19 37  1  0  0  0  0
 19 38  1  0  0  0  0
 20 21  1  0  0  0  0
 20 39  1  0  0  0  0
 20 40  1  0  0  0  0
 21 41  1  0  0  0  0
 21 42  1  0  0  0  0
 22 43  1  0  0  0  0
 22 44  1  0  0  0  0
M  END
$$$$
