
 OpenBabel07202414153D

 46 50  0  0  1  0  0  0  0  0999 V2000
    3.3518    0.3702    0.9360 C   0  0  0  0  0  0  0  0  0  0  0  0
    4.7910   -0.6604    0.6750 S   0  0  0  0  0  0  0  0  0  0  0  0
    5.9727    0.1349    0.9372 O   0  0  0  0  0  0  0  0  0  0  0  0
    4.5570   -1.9342    1.3352 O   0  0  0  0  0  0  0  0  0  0  0  0
    4.7129   -0.9453   -1.0851 C   0  0  0  0  0  0  0  0  0  0  0  0
    5.3255   -0.0456   -1.9522 C   0  0  0  0  0  0  0  0  0  0  0  0
    5.2314   -0.2540   -3.3294 C   0  0  0  0  0  0  0  0  0  0  0  0
    4.5354   -1.3570   -3.8754 C   0  0  0  0  0  0  0  0  0  0  0  0
    4.4172   -1.6211   -5.2591 C   0  0  0  0  0  0  0  0  0  0  0  0
    4.8679   -0.7564   -6.2811 N   0  0  0  0  0  0  0  0  0  0  0  0
    4.5986    0.6132   -6.4102 C   0  0  0  0  0  0  0  0  0  0  0  0
    3.7802    1.2140   -5.7124 O   0  0  0  0  0  0  0  0  0  0  0  0
    5.5088    1.2661   -7.5177 C   0  0  3  0  0  0  0  0  0  0  0  0
    5.6789    0.3384   -8.8129 C   0  0  0  0  0  0  0  0  0  0  0  0
    6.3268    1.5897   -9.4263 C   0  0  3  0  0  0  0  0  0  0  0  0
    5.1604    2.3425   -8.6248 C   0  0  0  0  0  0  0  0  0  0  0  0
    7.7261    1.7800   -9.0063 O   0  0  0  0  0  0  0  0  0  0  0  0
    7.9125    2.0521   -7.6586 C   0  0  0  0  0  0  0  0  0  0  0  0
    9.0852    2.6734   -7.2441 C   0  0  0  0  0  0  0  0  0  0  0  0
    9.1134    3.2869   -5.9914 C   0  0  0  0  0  0  0  0  0  0  0  0
    7.9770    3.2614   -5.1842 C   0  0  0  0  0  0  0  0  0  0  0  0
    7.9310    4.1916   -3.7363 Cl  0  0  0  0  0  0  0  0  0  0  0  0
    6.8420    2.5513   -5.5811 C   0  0  0  0  0  0  0  0  0  0  0  0
    6.8048    1.8816   -6.8158 C   0  0  0  0  0  0  0  0  0  0  0  0
    3.9271   -2.8675   -5.6473 C   0  0  0  0  0  0  0  0  0  0  0  0
    3.4459   -3.8037   -4.8019 N   0  0  0  0  0  0  0  0  0  0  0  0
    3.4761   -3.4898   -3.4890 C   0  0  0  0  0  0  0  0  0  0  0  0
    4.0143   -2.3108   -2.9659 C   0  0  0  0  0  0  0  0  0  0  0  0
    4.0792   -2.0866   -1.5787 C   0  0  0  0  0  0  0  0  0  0  0  0
    3.3162    0.6385    1.9944 H   0  0  0  0  0  0  0  0  0  0  0  0
    2.4550   -0.1911    0.6668 H   0  0  0  0  0  0  0  0  0  0  0  0
    3.4333    1.2764    0.3285 H   0  0  0  0  0  0  0  0  0  0  0  0
    5.8813    0.8111   -1.5770 H   0  0  0  0  0  0  0  0  0  0  0  0
    5.7458    0.4432   -3.9814 H   0  0  0  0  0  0  0  0  0  0  0  0
    5.2576   -1.2285   -7.0859 H   0  0  0  0  0  0  0  0  0  0  0  0
    4.7258    0.0454   -9.2809 H   0  0  0  0  0  0  0  0  0  0  0  0
    6.3097   -0.5473   -8.7392 H   0  0  0  0  0  0  0  0  0  0  0  0
    6.2608    1.6362  -10.5151 H   0  0  0  0  0  0  0  0  0  0  0  0
    4.1634    2.2988   -9.0742 H   0  0  0  0  0  0  0  0  0  0  0  0
    5.3898    3.3912   -8.3956 H   0  0  0  0  0  0  0  0  0  0  0  0
    9.9300    2.7627   -7.9189 H   0  0  0  0  0  0  0  0  0  0  0  0
    9.9916    3.8471   -5.6819 H   0  0  0  0  0  0  0  0  0  0  0  0
    5.9397    2.6146   -4.9744 H   0  0  0  0  0  0  0  0  0  0  0  0
    3.8760   -3.1531   -6.6947 H   0  0  0  0  0  0  0  0  0  0  0  0
    3.0689   -4.2610   -2.8387 H   0  0  0  0  0  0  0  0  0  0  0  0
    3.6561   -2.8148   -0.8879 H   0  0  0  0  0  0  0  0  0  0  0  0
  1  2  1  0  0  0  0
  1 30  1  0  0  0  0
  1 31  1  0  0  0  0
  1 32  1  0  0  0  0
  2  3  2  0  0  0  0
  2  4  2  0  0  0  0
  2  5  1  0  0  0  0
  5  6  1  0  0  0  0
  5 29  2  0  0  0  0
  6  7  2  0  0  0  0
  6 33  1  0  0  0  0
  7  8  1  0  0  0  0
  7 34  1  0  0  0  0
  8  9  1  0  0  0  0
  8 28  2  0  0  0  0
  9 10  1  0  0  0  0
  9 25  2  0  0  0  0
 10 11  1  0  0  0  0
 10 35  1  0  0  0  0
 11 12  2  0  0  0  0
 11 13  1  0  0  0  0
 13 14  1  0  0  0  0
 13 16  1  0  0  0  0
 13 24  1  0  0  0  0
 14 15  1  0  0  0  0
 14 36  1  0  0  0  0
 14 37  1  0  0  0  0
 15 16  1  0  0  0  0
 15 17  1  0  0  0  0
 15 38  1  0  0  0  0
 16 39  1  0  0  0  0
 16 40  1  0  0  0  0
 17 18  1  0  0  0  0
 18 19  1  0  0  0  0
 18 24  2  0  0  0  0
 19 20  2  0  0  0  0
 19 41  1  0  0  0  0
 20 21  1  0  0  0  0
 20 42  1  0  0  0  0
 21 22  1  0  0  0  0
 21 23  2  0  0  0  0
 23 24  1  0  0  0  0
 23 43  1  0  0  0  0
 25 26  1  0  0  0  0
 25 44  1  0  0  0  0
 26 27  2  0  0  0  0
 27 28  1  0  0  0  0
 27 45  1  0  0  0  0
 28 29  1  0  0  0  0
 29 46  1  0  0  0  0
M  END
$$$$
