
 OpenBabel07202414183D

 34 36  0  0  0  0  0  0  0  0999 V2000
   -2.1707    5.4481   -0.8707 F   0  0  0  0  0  0  0  0  0  0  0  0
   -1.6707    4.7178   -1.8778 C   0  0  0  0  0  0  0  0  0  0  0  0
   -1.1952    5.3710   -3.0128 C   0  0  0  0  0  0  0  0  0  0  0  0
   -0.6912    4.6241   -4.0775 C   0  0  0  0  0  0  0  0  0  0  0  0
   -0.6914    3.2311   -4.0016 C   0  0  0  0  0  0  0  0  0  0  0  0
   -0.0840    2.3085   -5.3207 Cl  0  0  0  0  0  0  0  0  0  0  0  0
   -1.1642    2.5797   -2.8579 C   0  0  0  0  0  0  0  0  0  0  0  0
   -1.6358    3.3242   -1.7666 C   0  0  0  0  0  0  0  0  0  0  0  0
   -2.0565    2.6483   -0.4867 C   0  0  0  0  0  0  0  0  0  0  0  0
   -3.5022    2.1996   -0.4588 C   0  0  0  0  0  0  0  0  0  0  0  0
   -3.8141    1.0322   -0.6772 O   0  0  0  0  0  0  0  0  0  0  0  0
   -4.3945    3.2213   -0.1873 N   0  0  0  0  0  0  0  0  0  0  0  0
   -5.7915    3.0121   -0.1017 C   0  0  0  0  0  0  0  0  0  0  0  0
   -6.3176    1.9264    0.6036 C   0  0  0  0  0  0  0  0  0  0  0  0
   -7.6389    1.6885    0.7690 N   0  0  0  0  0  0  0  0  0  0  0  0
   -8.4821    2.5476    0.1578 C   0  0  0  0  0  0  0  0  0  0  0  0
   -8.0769    3.6557   -0.5963 C   0  0  0  0  0  0  0  0  0  0  0  0
   -9.0142    4.4773   -1.2476 C   0  0  0  0  0  0  0  0  0  0  0  0
   -8.5925    5.5481   -2.0359 C   0  0  0  0  0  0  0  0  0  0  0  0
   -7.2371    5.8155   -2.1712 C   0  0  0  0  0  0  0  0  0  0  0  0
   -6.2981    5.0119   -1.5185 C   0  0  0  0  0  0  0  0  0  0  0  0
   -6.6932    3.9124   -0.7161 C   0  0  0  0  0  0  0  0  0  0  0  0
   -1.2069    6.4559   -3.0571 H   0  0  0  0  0  0  0  0  0  0  0  0
   -0.3034    5.1289   -4.9592 H   0  0  0  0  0  0  0  0  0  0  0  0
   -1.1482    1.4921   -2.8123 H   0  0  0  0  0  0  0  0  0  0  0  0
   -1.8717    3.3069    0.3708 H   0  0  0  0  0  0  0  0  0  0  0  0
   -1.4272    1.7661   -0.3142 H   0  0  0  0  0  0  0  0  0  0  0  0
   -4.0739    4.1625   -0.3777 H   0  0  0  0  0  0  0  0  0  0  0  0
   -5.6711    1.2158    1.1116 H   0  0  0  0  0  0  0  0  0  0  0  0
   -9.5336    2.3116    0.2916 H   0  0  0  0  0  0  0  0  0  0  0  0
  -10.0798    4.2744   -1.1674 H   0  0  0  0  0  0  0  0  0  0  0  0
   -9.3212    6.1631   -2.5558 H   0  0  0  0  0  0  0  0  0  0  0  0
   -6.8998    6.6361   -2.7997 H   0  0  0  0  0  0  0  0  0  0  0  0
   -5.2490    5.2387   -1.6829 H   0  0  0  0  0  0  0  0  0  0  0  0
  1  2  1  0  0  0  0
  2  3  1  0  0  0  0
  2  8  2  0  0  0  0
  3  4  2  0  0  0  0
  3 23  1  0  0  0  0
  4  5  1  0  0  0  0
  4 24  1  0  0  0  0
  5  6  1  0  0  0  0
  5  7  2  0  0  0  0
  7  8  1  0  0  0  0
  7 25  1  0  0  0  0
  8  9  1  0  0  0  0
  9 10  1  0  0  0  0
  9 26  1  0  0  0  0
  9 27  1  0  0  0  0
 10 11  2  0  0  0  0
 10 12  1  0  0  0  0
 12 13  1  0  0  0  0
 12 28  1  0  0  0  0
 13 14  1  0  0  0  0
 13 22  2  0  0  0  0
 14 15  2  0  0  0  0
 14 29  1  0  0  0  0
 15 16  1  0  0  0  0
 16 17  2  0  0  0  0
 16 30  1  0  0  0  0
 17 18  1  0  0  0  0
 17 22  1  0  0  0  0
 18 19  2  0  0  0  0
 18 31  1  0  0  0  0
 19 20  1  0  0  0  0
 19 32  1  0  0  0  0
 20 21  2  0  0  0  0
 20 33  1  0  0  0  0
 21 22  1  0  0  0  0
 21 34  1  0  0  0  0
M  END
$$$$
