
 OpenBabel07202414173D

 62 67  0  0  1  0  0  0  0  0999 V2000
    1.1612    0.3321   -0.6847 Cl  0  0  0  0  0  0  0  0  0  0  0  0
    2.8650    0.2180   -0.4649 C   0  0  0  0  0  0  0  0  0  0  0  0
    3.5872    1.3500   -0.1214 C   0  0  0  0  0  0  0  0  0  0  0  0
    4.9609    1.2416    0.0623 C   0  0  0  0  0  0  0  0  0  0  0  0
    5.6071   -0.0091   -0.0298 C   0  0  0  0  0  0  0  0  0  0  0  0
    4.8672   -1.1889   -0.2781 C   0  0  0  0  0  0  0  0  0  0  0  0
    3.4963   -1.0287   -0.5721 C   0  0  0  0  0  0  0  0  0  0  0  0
    5.5388   -2.5848   -0.1621 C   0  0  3  0  0  0  0  0  0  0  0  0
    7.0728   -2.4574   -0.2177 C   0  0  0  0  0  0  0  0  0  0  0  0
    7.6481   -1.3131    0.5609 N   0  0  0  0  0  0  0  0  0  0  0  0
    7.8172   -1.3131    2.2602 S   0  0  0  0  0  0  0  0  0  0  0  0
    8.6416   -0.1688    2.5537 O   0  0  0  0  0  0  0  0  0  0  0  0
    6.4950   -1.3927    2.8475 O   0  0  0  0  0  0  0  0  0  0  0  0
    8.7998   -2.7897    2.5960 C   0  0  0  0  0  0  0  0  0  0  0  0
    8.8593   -2.9679    4.0972 C   0  0  0  0  0  0  0  0  0  0  0  0
    9.3635   -1.8500    4.8620 C   0  0  0  0  0  0  0  0  0  0  0  0
    9.7892   -0.9991    5.5203 N   0  0  0  0  0  0  0  0  0  0  0  0
    7.8956   -3.9172    4.7896 C   0  0  0  0  0  0  0  0  0  0  0  0
    9.3219   -4.3324    4.6052 C   0  0  0  0  0  0  0  0  0  0  0  0
    7.1123   -0.0258    0.0706 C   0  0  0  0  0  0  0  0  0  0  0  0
    4.9715   -3.6068   -1.2088 C   0  0  0  0  0  0  0  0  0  0  0  0
    4.0706   -4.5834   -0.4142 C   0  0  0  0  0  0  0  0  0  0  0  0
    3.9128   -3.9434    0.8528 N   0  0  0  0  0  0  0  0  0  0  0  0
    3.0961   -4.3729    1.9263 C   0  0  0  0  0  0  0  0  0  0  0  0
    2.7250   -5.6932    2.1385 C   0  0  0  0  0  0  0  0  0  0  0  0
    1.8790   -6.0972    3.1196 N   0  0  0  0  0  0  0  0  0  0  0  0
    1.3524   -5.1319    3.9129 C   0  0  0  0  0  0  0  0  0  0  0  0
    1.6352   -3.7764    3.7930 C   0  0  0  0  0  0  0  0  0  0  0  0
    2.5345   -3.3953    2.7857 C   0  0  0  0  0  0  0  0  0  0  0  0
    2.8563   -1.9338    2.6111 C   0  0  0  0  0  0  0  0  0  0  0  0
    1.8241   -0.9680    3.1644 C   0  0  0  0  0  0  0  0  0  0  0  0
    1.4970   -1.3544    4.5915 C   0  0  0  0  0  0  0  0  0  0  0  0
    0.8915   -2.7599    4.6266 C   0  0  0  0  0  0  0  0  0  0  0  0
    5.1596   -3.3657    1.0993 C   0  0  0  0  0  0  0  0  0  0  0  0
    5.9052   -3.7332    1.9973 O   0  0  0  0  0  0  0  0  0  0  0  0
    3.0966    2.3117    0.0001 H   0  0  0  0  0  0  0  0  0  0  0  0
    5.5310    2.1394    0.2989 H   0  0  0  0  0  0  0  0  0  0  0  0
    2.8685   -1.8894   -0.7909 H   0  0  0  0  0  0  0  0  0  0  0  0
    7.3611   -2.2794   -1.2670 H   0  0  0  0  0  0  0  0  0  0  0  0
    7.5832   -3.3888    0.0506 H   0  0  0  0  0  0  0  0  0  0  0  0
    9.7987   -2.6056    2.1853 H   0  0  0  0  0  0  0  0  0  0  0  0
    8.3652   -3.6615    2.1026 H   0  0  0  0  0  0  0  0  0  0  0  0
    7.1390   -4.4319    4.2057 H   0  0  0  0  0  0  0  0  0  0  0  0
    7.5614   -3.6721    5.7966 H   0  0  0  0  0  0  0  0  0  0  0  0
    9.5293   -5.1242    3.8948 H   0  0  0  0  0  0  0  0  0  0  0  0
    9.9589   -4.3695    5.4865 H   0  0  0  0  0  0  0  0  0  0  0  0
    7.5282    0.1624   -0.9277 H   0  0  0  0  0  0  0  0  0  0  0  0
    7.4591    0.8072    0.6909 H   0  0  0  0  0  0  0  0  0  0  0  0
    5.7666   -4.1625   -1.7189 H   0  0  0  0  0  0  0  0  0  0  0  0
    4.3891   -3.1182   -1.9984 H   0  0  0  0  0  0  0  0  0  0  0  0
    4.6042   -5.5334   -0.2745 H   0  0  0  0  0  0  0  0  0  0  0  0
    3.1086   -4.7680   -0.8984 H   0  0  0  0  0  0  0  0  0  0  0  0
    3.1236   -6.5032    1.5368 H   0  0  0  0  0  0  0  0  0  0  0  0
    0.6518   -5.4907    4.6631 H   0  0  0  0  0  0  0  0  0  0  0  0
    2.8925   -1.7323    1.5551 H   0  0  0  0  0  0  0  0  0  0  0  0
    3.8384   -1.7267    3.0478 H   0  0  0  0  0  0  0  0  0  0  0  0
    0.9157   -0.9955    2.5475 H   0  0  0  0  0  0  0  0  0  0  0  0
    2.2144    0.0545    3.1103 H   0  0  0  0  0  0  0  0  0  0  0  0
    0.7981   -0.6295    5.0218 H   0  0  0  0  0  0  0  0  0  0  0  0
    2.4130   -1.3215    5.1954 H   0  0  0  0  0  0  0  0  0  0  0  0
   -0.1334   -2.7008    4.2355 H   0  0  0  0  0  0  0  0  0  0  0  0
    0.8305   -3.0915    5.6682 H   0  0  0  0  0  0  0  0  0  0  0  0
  1  2  1  0  0  0  0
  2  3  1  0  0  0  0
  2  7  2  0  0  0  0
  3  4  2  0  0  0  0
  3 36  1  0  0  0  0
  4  5  1  0  0  0  0
  4 37  1  0  0  0  0
  5  6  2  0  0  0  0
  5 20  1  0  0  0  0
  6  7  1  0  0  0  0
  6  8  1  0  0  0  0
  7 38  1  0  0  0  0
  8  9  1  0  0  0  0
  8 21  1  0  0  0  0
  8 34  1  0  0  0  0
  9 10  1  0  0  0  0
  9 39  1  0  0  0  0
  9 40  1  0  0  0  0
 10 11  1  0  0  0  0
 10 20  1  0  0  0  0
 11 12  2  0  0  0  0
 11 13  2  0  0  0  0
 11 14  1  0  0  0  0
 14 15  1  0  0  0  0
 14 41  1  0  0  0  0
 14 42  1  0  0  0  0
 15 16  1  0  0  0  0
 15 18  1  0  0  0  0
 15 19  1  0  0  0  0
 16 17  3  0  0  0  0
 18 19  1  0  0  0  0
 18 43  1  0  0  0  0
 18 44  1  0  0  0  0
 19 45  1  0  0  0  0
 19 46  1  0  0  0  0
 20 47  1  0  0  0  0
 20 48  1  0  0  0  0
 21 22  1  0  0  0  0
 21 49  1  0  0  0  0
 21 50  1  0  0  0  0
 22 23  1  0  0  0  0
 22 51  1  0  0  0  0
 22 52  1  0  0  0  0
 23 24  1  0  0  0  0
 23 34  1  0  0  0  0
 24 25  1  0  0  0  0
 24 29  2  0  0  0  0
 25 26  2  0  0  0  0
 25 53  1  0  0  0  0
 26 27  1  0  0  0  0
 27 28  2  0  0  0  0
 27 54  1  0  0  0  0
 28 29  1  0  0  0  0
 28 33  1  0  0  0  0
 29 30  1  0  0  0  0
 30 31  1  0  0  0  0
 30 55  1  0  0  0  0
 30 56  1  0  0  0  0
 31 32  1  0  0  0  0
 31 57  1  0  0  0  0
 31 58  1  0  0  0  0
 32 33  1  0  0  0  0
 32 59  1  0  0  0  0
 32 60  1  0  0  0  0
 33 61  1  0  0  0  0
 33 62  1  0  0  0  0
 34 35  2  0  0  0  0
M  END
$$$$
