
 OpenBabel07202414163D

 42 45  0  0  1  0  0  0  0  0999 V2000
    2.8423    6.4608    0.1943 C   0  0  0  0  0  0  0  0  0  0  0  0
    3.5995    5.9304    1.3671 C   0  0  0  0  0  0  0  0  0  0  0  0
    4.4697    6.8069    2.0661 C   0  0  0  0  0  0  0  0  0  0  0  0
    5.2088    6.4389    3.2304 C   0  0  0  0  0  0  0  0  0  0  0  0
    5.1538    5.2092    3.8255 N   0  0  0  0  0  0  0  0  0  0  0  0
    4.3041    4.3509    3.2222 C   0  0  0  0  0  0  0  0  0  0  0  0
    3.5652    4.6895    2.0278 C   0  0  0  0  0  0  0  0  0  0  0  0
    2.7817    3.5793    1.7881 C   0  0  0  0  0  0  0  0  0  0  0  0
    3.0600    2.7099    2.8219 N   0  0  0  0  0  0  0  0  0  0  0  0
    4.0108    3.1294    3.6609 N   0  0  0  0  0  0  0  0  0  0  0  0
    1.8627    3.3570    0.7669 N   0  0  0  0  0  0  0  0  0  0  0  0
    0.7271    2.4879    0.9708 C   0  0  0  0  0  0  0  0  0  0  0  0
    0.6262    1.8843    2.0308 O   0  0  0  0  0  0  0  0  0  0  0  0
   -0.3429    2.4917   -0.1119 C   0  0  3  0  0  0  0  0  0  0  0  0
   -1.0494    3.8597   -0.0631 C   0  0  0  0  0  0  0  0  0  0  0  0
   -1.0952    4.5434   -1.4189 C   0  0  0  0  0  0  0  0  0  0  0  0
    0.1914    4.4974   -2.0464 O   0  0  0  0  0  0  0  0  0  0  0  0
    0.5341    3.2061   -2.3521 C   0  0  0  0  0  0  0  0  0  0  0  0
    0.2445    2.1671   -1.4647 C   0  0  0  0  0  0  0  0  0  0  0  0
    0.5671    0.8535   -1.8360 C   0  0  0  0  0  0  0  0  0  0  0  0
    1.2105    0.6088   -3.0522 C   0  0  0  0  0  0  0  0  0  0  0  0
    1.5551    1.6661   -3.8965 C   0  0  0  0  0  0  0  0  0  0  0  0
    1.2114    2.9711   -3.5435 C   0  0  0  0  0  0  0  0  0  0  0  0
    1.5880   -1.0043   -3.5089 Cl  0  0  0  0  0  0  0  0  0  0  0  0
    6.1177    7.4880    3.8772 C   0  0  0  0  0  0  0  0  0  0  0  0
    6.0950    8.6895    3.2241 F   0  0  0  0  0  0  0  0  0  0  0  0
    5.7750    7.7717    5.1645 F   0  0  0  0  0  0  0  0  0  0  0  0
    7.4281    7.1144    3.8994 F   0  0  0  0  0  0  0  0  0  0  0  0
    3.5175    7.0249   -0.4589 H   0  0  0  0  0  0  0  0  0  0  0  0
    2.0475    7.1329    0.5337 H   0  0  0  0  0  0  0  0  0  0  0  0
    2.3966    5.6798   -0.4169 H   0  0  0  0  0  0  0  0  0  0  0  0
    4.5734    7.8318    1.6986 H   0  0  0  0  0  0  0  0  0  0  0  0
    2.6325    1.8017    2.9868 H   0  0  0  0  0  0  0  0  0  0  0  0
    1.9484    3.8667   -0.1042 H   0  0  0  0  0  0  0  0  0  0  0  0
   -1.0747    1.7135    0.1408 H   0  0  0  0  0  0  0  0  0  0  0  0
   -0.5330    4.5325    0.6351 H   0  0  0  0  0  0  0  0  0  0  0  0
   -2.0643    3.7473    0.3350 H   0  0  0  0  0  0  0  0  0  0  0  0
   -1.8620    4.1017   -2.0733 H   0  0  0  0  0  0  0  0  0  0  0  0
   -1.3613    5.5979   -1.2883 H   0  0  0  0  0  0  0  0  0  0  0  0
    0.3205    0.0127   -1.1878 H   0  0  0  0  0  0  0  0  0  0  0  0
    2.0772    1.4767   -4.8301 H   0  0  0  0  0  0  0  0  0  0  0  0
    1.4578    3.7987   -4.2123 H   0  0  0  0  0  0  0  0  0  0  0  0
  1  2  1  0  0  0  0
  1 29  1  0  0  0  0
  1 30  1  0  0  0  0
  1 31  1  0  0  0  0
  2  3  2  0  0  0  0
  2  7  1  0  0  0  0
  3  4  1  0  0  0  0
  3 32  1  0  0  0  0
  4  5  2  0  0  0  0
  4 25  1  0  0  0  0
  5  6  1  0  0  0  0
  6  7  1  0  0  0  0
  6 10  2  0  0  0  0
  7  8  2  0  0  0  0
  8  9  1  0  0  0  0
  8 11  1  0  0  0  0
  9 10  1  0  0  0  0
  9 33  1  0  0  0  0
 11 12  1  0  0  0  0
 11 34  1  0  0  0  0
 12 13  2  0  0  0  0
 12 14  1  0  0  0  0
 14 15  1  0  0  0  0
 14 19  1  0  0  0  0
 14 35  1  0  0  0  0
 15 16  1  0  0  0  0
 15 36  1  0  0  0  0
 15 37  1  0  0  0  0
 16 17  1  0  0  0  0
 16 38  1  0  0  0  0
 16 39  1  0  0  0  0
 17 18  1  0  0  0  0
 18 19  1  0  0  0  0
 18 23  2  0  0  0  0
 19 20  2  0  0  0  0
 20 21  1  0  0  0  0
 20 40  1  0  0  0  0
 21 22  2  0  0  0  0
 21 24  1  0  0  0  0
 22 23  1  0  0  0  0
 22 41  1  0  0  0  0
 23 42  1  0  0  0  0
 25 26  1  0  0  0  0
 25 27  1  0  0  0  0
 25 28  1  0  0  0  0
M  END
$$$$
