
 OpenBabel07202414173D

 65 70  0  0  1  0  0  0  0  0999 V2000
    0.9686    0.2801    0.0064 Cl  0  0  0  0  0  0  0  0  0  0  0  0
    2.6817    0.1347    0.0684 C   0  0  0  0  0  0  0  0  0  0  0  0
    3.4759    1.2678   -0.0517 C   0  0  0  0  0  0  0  0  0  0  0  0
    4.8607    1.1373    0.0063 C   0  0  0  0  0  0  0  0  0  0  0  0
    5.4495   -0.1230    0.1799 C   0  0  0  0  0  0  0  0  0  0  0  0
    4.6664   -1.2829    0.2739 C   0  0  0  0  0  0  0  0  0  0  0  0
    3.2632   -1.1244    0.2341 C   0  0  0  0  0  0  0  0  0  0  0  0
    5.2971   -2.6886    0.4586 C   0  0  3  0  0  0  0  0  0  0  0  0
    4.6848   -3.6506   -0.6271 C   0  0  0  0  0  0  0  0  0  0  0  0
    5.2664   -5.0624   -0.7248 C   0  0  0  0  0  0  0  0  0  0  0  0
    6.2009   -5.3997    0.0044 O   0  0  0  0  0  0  0  0  0  0  0  0
    4.6926   -5.9604   -1.6118 N   0  0  0  0  0  0  0  0  0  0  0  0
    5.0270   -7.3858   -1.5020 C   0  0  0  0  0  0  0  0  0  0  0  0
    5.7314   -7.9265   -2.7448 C   0  0  0  0  0  0  0  0  0  0  0  0
    5.0437   -7.5300   -4.0487 C   0  0  0  0  0  0  0  0  0  0  0  0
    4.7056   -6.0377   -4.0737 C   0  0  0  0  0  0  0  0  0  0  0  0
    3.9350   -5.5758   -2.8225 C   0  0  3  0  0  0  0  0  0  0  0  0
    2.5168   -6.0947   -2.7880 C   0  0  0  0  0  0  0  0  0  0  0  0
    2.2021   -7.4328   -2.7998 N   0  0  0  0  0  0  0  0  0  0  0  0
    0.8925   -7.4445   -2.8366 C   0  0  0  0  0  0  0  0  0  0  0  0
    0.4343   -6.1685   -2.8455 N   0  0  0  0  0  0  0  0  0  0  0  0
    1.4470   -5.2836   -2.8174 N   0  0  0  0  0  0  0  0  0  0  0  0
    4.9804   -3.1838    1.9321 C   0  0  0  0  0  0  0  0  0  0  0  0
    4.2690   -2.5484    2.6955 O   0  0  0  0  0  0  0  0  0  0  0  0
    5.6020   -4.3784    2.2892 N   0  0  0  0  0  0  0  0  0  0  0  0
    5.6359   -5.0037    3.5716 C   0  0  0  0  0  0  0  0  0  0  0  0
    4.8099   -4.6201    4.6279 C   0  0  0  0  0  0  0  0  0  0  0  0
    4.9329   -5.0647    5.8999 N   0  0  0  0  0  0  0  0  0  0  0  0
    5.8914   -5.9870    6.1273 C   0  0  0  0  0  0  0  0  0  0  0  0
    6.6762   -6.5677    5.1352 C   0  0  0  0  0  0  0  0  0  0  0  0
    7.5514   -7.6316    5.4347 C   0  0  0  0  0  0  0  0  0  0  0  0
    8.3407   -8.2029    4.4399 C   0  0  0  0  0  0  0  0  0  0  0  0
    8.2944   -7.6898    3.1539 C   0  0  0  0  0  0  0  0  0  0  0  0
    7.4305   -6.6333    2.8519 C   0  0  0  0  0  0  0  0  0  0  0  0
    6.5728   -6.0560    3.8223 C   0  0  0  0  0  0  0  0  0  0  0  0
    6.8220   -2.5468    0.1972 C   0  0  0  0  0  0  0  0  0  0  0  0
    7.3991   -1.2730    0.7871 C   0  0  0  0  0  0  0  0  0  0  0  0
    6.8135   -0.1121    0.2108 O   0  0  0  0  0  0  0  0  0  0  0  0
    3.0282    2.2491   -0.1773 H   0  0  0  0  0  0  0  0  0  0  0  0
    5.4895    2.0203   -0.0722 H   0  0  0  0  0  0  0  0  0  0  0  0
    2.6079   -1.9827    0.3652 H   0  0  0  0  0  0  0  0  0  0  0  0
    4.8258   -3.1725   -1.6049 H   0  0  0  0  0  0  0  0  0  0  0  0
    3.6085   -3.7748   -0.4581 H   0  0  0  0  0  0  0  0  0  0  0  0
    4.0982   -7.9348   -1.3189 H   0  0  0  0  0  0  0  0  0  0  0  0
    5.6548   -7.5739   -0.6241 H   0  0  0  0  0  0  0  0  0  0  0  0
    5.7935   -9.0200   -2.6825 H   0  0  0  0  0  0  0  0  0  0  0  0
    6.7612   -7.5504   -2.7635 H   0  0  0  0  0  0  0  0  0  0  0  0
    4.1370   -8.1282   -4.1897 H   0  0  0  0  0  0  0  0  0  0  0  0
    5.6959   -7.7740   -4.8954 H   0  0  0  0  0  0  0  0  0  0  0  0
    4.1427   -5.8026   -4.9848 H   0  0  0  0  0  0  0  0  0  0  0  0
    5.6501   -5.4795   -4.1297 H   0  0  0  0  0  0  0  0  0  0  0  0
    3.8770   -4.4855   -2.8817 H   0  0  0  0  0  0  0  0  0  0  0  0
    0.2519   -8.3144   -2.8637 H   0  0  0  0  0  0  0  0  0  0  0  0
   -0.5210   -5.8326   -2.8801 H   0  0  0  0  0  0  0  0  0  0  0  0
    6.1570   -4.8349    1.5687 H   0  0  0  0  0  0  0  0  0  0  0  0
    3.9773   -3.9358    4.4906 H   0  0  0  0  0  0  0  0  0  0  0  0
    6.0132   -6.2591    7.1751 H   0  0  0  0  0  0  0  0  0  0  0  0
    7.6020   -8.0398    6.4414 H   0  0  0  0  0  0  0  0  0  0  0  0
    8.9904   -9.0438    4.6692 H   0  0  0  0  0  0  0  0  0  0  0  0
    8.9204   -8.1135    2.3719 H   0  0  0  0  0  0  0  0  0  0  0  0
    7.4461   -6.2860    1.8254 H   0  0  0  0  0  0  0  0  0  0  0  0
    6.9947   -2.5135   -0.8882 H   0  0  0  0  0  0  0  0  0  0  0  0
    7.3980   -3.3888    0.5861 H   0  0  0  0  0  0  0  0  0  0  0  0
    8.4694   -1.2294    0.5479 H   0  0  0  0  0  0  0  0  0  0  0  0
    7.3131   -1.2356    1.8784 H   0  0  0  0  0  0  0  0  0  0  0  0
  1  2  1  0  0  0  0
  2  3  1  0  0  0  0
  2  7  2  0  0  0  0
  3  4  2  0  0  0  0
  3 39  1  0  0  0  0
  4  5  1  0  0  0  0
  4 40  1  0  0  0  0
  5  6  2  0  0  0  0
  5 38  1  0  0  0  0
  6  7  1  0  0  0  0
  6  8  1  0  0  0  0
  7 41  1  0  0  0  0
  8  9  1  0  0  0  0
  8 23  1  0  0  0  0
  8 36  1  0  0  0  0
  9 10  1  0  0  0  0
  9 42  1  0  0  0  0
  9 43  1  0  0  0  0
 10 11  2  0  0  0  0
 10 12  1  0  0  0  0
 12 13  1  0  0  0  0
 12 17  1  0  0  0  0
 13 14  1  0  0  0  0
 13 44  1  0  0  0  0
 13 45  1  0  0  0  0
 14 15  1  0  0  0  0
 14 46  1  0  0  0  0
 14 47  1  0  0  0  0
 15 16  1  0  0  0  0
 15 48  1  0  0  0  0
 15 49  1  0  0  0  0
 16 17  1  0  0  0  0
 16 50  1  0  0  0  0
 16 51  1  0  0  0  0
 17 18  1  0  0  0  0
 17 52  1  0  0  0  0
 18 19  1  0  0  0  0
 18 22  2  0  0  0  0
 19 20  2  0  0  0  0
 20 21  1  0  0  0  0
 20 53  1  0  0  0  0
 21 22  1  0  0  0  0
 21 54  1  0  0  0  0
 23 24  2  0  0  0  0
 23 25  1  0  0  0  0
 25 26  1  0  0  0  0
 25 55  1  0  0  0  0
 26 27  1  0  0  0  0
 26 35  2  0  0  0  0
 27 28  2  0  0  0  0
 27 56  1  0  0  0  0
 28 29  1  0  0  0  0
 29 30  2  0  0  0  0
 29 57  1  0  0  0  0
 30 31  1  0  0  0  0
 30 35  1  0  0  0  0
 31 32  2  0  0  0  0
 31 58  1  0  0  0  0
 32 33  1  0  0  0  0
 32 59  1  0  0  0  0
 33 34  2  0  0  0  0
 33 60  1  0  0  0  0
 34 35  1  0  0  0  0
 34 61  1  0  0  0  0
 36 37  1  0  0  0  0
 36 62  1  0  0  0  0
 36 63  1  0  0  0  0
 37 38  1  0  0  0  0
 37 64  1  0  0  0  0
 37 65  1  0  0  0  0
M  END
$$$$
