
 OpenBabel07202414133D

 73 78  0  0  1  0  0  0  0  0999 V2000
    2.7589    0.8257   -2.4531 C   0  0  0  0  0  0  0  0  0  0  0  0
    4.0613    0.8767   -1.7854 N   0  0  0  0  0  0  0  0  0  0  0  0
    4.0507    1.9369   -0.7740 C   0  0  0  0  0  0  0  0  0  0  0  0
    4.3745   -0.4432   -1.2061 C   0  0  0  0  0  0  0  0  0  0  0  0
    5.7241   -0.4873   -0.4931 C   0  0  0  0  0  0  0  0  0  0  0  0
    5.9437   -1.7950    0.0320 O   0  0  0  0  0  0  0  0  0  0  0  0
    7.1252   -1.9224    0.7082 C   0  0  0  0  0  0  0  0  0  0  0  0
    8.0779   -0.9280    0.8765 C   0  0  0  0  0  0  0  0  0  0  0  0
    9.2217   -1.1683    1.6325 C   0  0  0  0  0  0  0  0  0  0  0  0
    9.4397   -2.4246    2.2092 C   0  0  0  0  0  0  0  0  0  0  0  0
   10.5449   -2.6731    3.0223 C   0  0  0  0  0  0  0  0  0  0  0  0
   10.7845   -3.8439    3.6462 N   0  0  0  0  0  0  0  0  0  0  0  0
    9.8992   -4.8374    3.4053 C   0  0  0  0  0  0  0  0  0  0  0  0
    8.8006   -4.7282    2.5388 C   0  0  0  0  0  0  0  0  0  0  0  0
    8.1331   -5.9159    2.1765 N   0  0  0  0  0  0  0  0  0  0  0  0
    7.4153   -6.1693    0.9803 C   0  0  0  0  0  0  0  0  0  0  0  0
    7.1118   -7.6585    1.0051 C   0  0  0  0  0  0  0  0  0  0  0  0
    7.3041   -8.1094    2.4891 C   0  0  3  0  0  0  0  0  0  0  0  0
    6.0325   -8.8273    2.9808 C   0  0  0  0  0  0  0  0  0  0  0  0
    6.2609   -9.6798    4.1897 N   0  0  0  0  0  0  0  0  0  0  0  0
    6.5700   -8.8727    5.6329 S   0  0  0  0  0  0  0  0  0  0  0  0
    6.7272   -9.8995    6.6861 O   0  0  0  0  0  0  0  0  0  0  0  0
    7.7098   -8.0464    5.4333 O   0  0  0  0  0  0  0  0  0  0  0  0
    5.0753   -7.9452    6.0582 C   0  0  0  0  0  0  0  0  0  0  0  0
    3.9659   -8.9537    6.2923 C   0  0  0  0  0  0  0  0  0  0  0  0
    3.6434   -9.7484    5.1193 C   0  0  0  0  0  0  0  0  0  0  0  0
    3.4625  -10.3314    4.1505 N   0  0  0  0  0  0  0  0  0  0  0  0
    3.6530   -9.6191    7.6352 C   0  0  0  0  0  0  0  0  0  0  0  0
    2.7553   -8.5358    7.1204 C   0  0  0  0  0  0  0  0  0  0  0  0
    7.1861  -10.7945    3.8675 C   0  0  0  0  0  0  0  0  0  0  0  0
    8.4647  -10.3055    3.2266 C   0  0  0  0  0  0  0  0  0  0  0  0
    9.5997  -11.1363    3.2785 C   0  0  0  0  0  0  0  0  0  0  0  0
   10.8097  -10.7272    2.7213 C   0  0  0  0  0  0  0  0  0  0  0  0
   10.8907   -9.4902    2.0987 C   0  0  0  0  0  0  0  0  0  0  0  0
   12.3740   -8.9727    1.3984 Cl  0  0  0  0  0  0  0  0  0  0  0  0
    9.7727   -8.6626    2.0244 C   0  0  0  0  0  0  0  0  0  0  0  0
    8.5370   -9.0488    2.5783 C   0  0  0  0  0  0  0  0  0  0  0  0
    7.5637   -6.7166    3.1471 C   0  0  0  0  0  0  0  0  0  0  0  0
    7.1917   -6.2154    4.1929 O   0  0  0  0  0  0  0  0  0  0  0  0
    8.5208   -3.4685    1.9900 C   0  0  0  0  0  0  0  0  0  0  0  0
    7.3452   -3.1625    1.2803 C   0  0  0  0  0  0  0  0  0  0  0  0
    2.5347    1.7876   -2.9263 H   0  0  0  0  0  0  0  0  0  0  0  0
    1.9485    0.5890   -1.7535 H   0  0  0  0  0  0  0  0  0  0  0  0
    2.7596    0.0747   -3.2502 H   0  0  0  0  0  0  0  0  0  0  0  0
    3.7836    2.8980   -1.2254 H   0  0  0  0  0  0  0  0  0  0  0  0
    5.0457    2.0877   -0.3426 H   0  0  0  0  0  0  0  0  0  0  0  0
    3.3466    1.7231    0.0379 H   0  0  0  0  0  0  0  0  0  0  0  0
    4.3988   -1.1989   -2.0033 H   0  0  0  0  0  0  0  0  0  0  0  0
    3.5916   -0.7680   -0.5082 H   0  0  0  0  0  0  0  0  0  0  0  0
    5.7197    0.2218    0.3430 H   0  0  0  0  0  0  0  0  0  0  0  0
    6.5244   -0.2338   -1.2001 H   0  0  0  0  0  0  0  0  0  0  0  0
    7.9389    0.0652    0.4662 H   0  0  0  0  0  0  0  0  0  0  0  0
    9.9277   -0.3561    1.7786 H   0  0  0  0  0  0  0  0  0  0  0  0
   11.2857   -1.9032    3.2167 H   0  0  0  0  0  0  0  0  0  0  0  0
   10.1414   -5.7790    3.8955 H   0  0  0  0  0  0  0  0  0  0  0  0
    7.9870   -5.8394    0.1130 H   0  0  0  0  0  0  0  0  0  0  0  0
    6.4475   -5.6672    1.0244 H   0  0  0  0  0  0  0  0  0  0  0  0
    7.7866   -8.1688    0.3125 H   0  0  0  0  0  0  0  0  0  0  0  0
    6.0959   -7.8278    0.6287 H   0  0  0  0  0  0  0  0  0  0  0  0
    5.6561   -9.5080    2.1952 H   0  0  0  0  0  0  0  0  0  0  0  0
    5.2052   -8.1347    3.1669 H   0  0  0  0  0  0  0  0  0  0  0  0
    4.8553   -7.2964    5.2015 H   0  0  0  0  0  0  0  0  0  0  0  0
    5.3081   -7.3208    6.9262 H   0  0  0  0  0  0  0  0  0  0  0  0
    4.1805   -9.4032    8.5558 H   0  0  0  0  0  0  0  0  0  0  0  0
    3.2865  -10.6449    7.6090 H   0  0  0  0  0  0  0  0  0  0  0  0
    2.7564   -7.6044    7.6759 H   0  0  0  0  0  0  0  0  0  0  0  0
    1.7643   -8.8300    6.7857 H   0  0  0  0  0  0  0  0  0  0  0  0
    6.6915  -11.4888    3.1751 H   0  0  0  0  0  0  0  0  0  0  0  0
    7.4100  -11.3851    4.7650 H   0  0  0  0  0  0  0  0  0  0  0  0
    9.5515  -12.1043    3.7743 H   0  0  0  0  0  0  0  0  0  0  0  0
   11.6824  -11.3705    2.7840 H   0  0  0  0  0  0  0  0  0  0  0  0
    9.8841   -7.7050    1.5248 H   0  0  0  0  0  0  0  0  0  0  0  0
    6.5271   -3.8627    1.2174 H   0  0  0  0  0  0  0  0  0  0  0  0
  1  2  1  0  0  0  0
  1 42  1  0  0  0  0
  1 43  1  0  0  0  0
  1 44  1  0  0  0  0
  2  3  1  0  0  0  0
  2  4  1  0  0  0  0
  3 45  1  0  0  0  0
  3 46  1  0  0  0  0
  3 47  1  0  0  0  0
  4  5  1  0  0  0  0
  4 48  1  0  0  0  0
  4 49  1  0  0  0  0
  5  6  1  0  0  0  0
  5 50  1  0  0  0  0
  5 51  1  0  0  0  0
  6  7  1  0  0  0  0
  7  8  1  0  0  0  0
  7 41  2  0  0  0  0
  8  9  2  0  0  0  0
  8 52  1  0  0  0  0
  9 10  1  0  0  0  0
  9 53  1  0  0  0  0
 10 11  1  0  0  0  0
 10 40  2  0  0  0  0
 11 12  2  0  0  0  0
 11 54  1  0  0  0  0
 12 13  1  0  0  0  0
 13 14  2  0  0  0  0
 13 55  1  0  0  0  0
 14 15  1  0  0  0  0
 14 40  1  0  0  0  0
 15 16  1  0  0  0  0
 15 38  1  0  0  0  0
 16 17  1  0  0  0  0
 16 56  1  0  0  0  0
 16 57  1  0  0  0  0
 17 18  1  0  0  0  0
 17 58  1  0  0  0  0
 17 59  1  0  0  0  0
 18 19  1  0  0  0  0
 18 37  1  0  0  0  0
 18 38  1  0  0  0  0
 19 20  1  0  0  0  0
 19 60  1  0  0  0  0
 19 61  1  0  0  0  0
 20 21  1  0  0  0  0
 20 30  1  0  0  0  0
 21 22  2  0  0  0  0
 21 23  2  0  0  0  0
 21 24  1  0  0  0  0
 24 25  1  0  0  0  0
 24 62  1  0  0  0  0
 24 63  1  0  0  0  0
 25 26  1  0  0  0  0
 25 28  1  0  0  0  0
 25 29  1  0  0  0  0
 26 27  3  0  0  0  0
 28 29  1  0  0  0  0
 28 64  1  0  0  0  0
 28 65  1  0  0  0  0
 29 66  1  0  0  0  0
 29 67  1  0  0  0  0
 30 31  1  0  0  0  0
 30 68  1  0  0  0  0
 30 69  1  0  0  0  0
 31 32  1  0  0  0  0
 31 37  2  0  0  0  0
 32 33  2  0  0  0  0
 32 70  1  0  0  0  0
 33 34  1  0  0  0  0
 33 71  1  0  0  0  0
 34 35  1  0  0  0  0
 34 36  2  0  0  0  0
 36 37  1  0  0  0  0
 36 72  1  0  0  0  0
 38 39  2  0  0  0  0
 40 41  1  0  0  0  0
 41 73  1  0  0  0  0
M  END
$$$$
