
 OpenBabel07202414143D

 54 57  0  0  0  0  0  0  0  0999 V2000
    2.8701    5.6386   -5.7668 C   0  0  0  0  0  0  0  0  0  0  0  0
    3.6374    5.4482   -4.5855 O   0  0  0  0  0  0  0  0  0  0  0  0
    3.9509    4.1615   -4.2427 C   0  0  0  0  0  0  0  0  0  0  0  0
    3.5128    3.0045   -4.8896 C   0  0  0  0  0  0  0  0  0  0  0  0
    3.9065    1.7446   -4.4208 C   0  0  0  0  0  0  0  0  0  0  0  0
    3.5389    0.5423   -4.9649 O   0  0  0  0  0  0  0  0  0  0  0  0
    2.7223    0.5866   -6.1298 C   0  0  0  0  0  0  0  0  0  0  0  0
    4.7560    1.6501   -3.3025 C   0  0  0  0  0  0  0  0  0  0  0  0
    5.2422    2.7987   -2.6870 C   0  0  0  0  0  0  0  0  0  0  0  0
    6.1203    2.6752   -1.5768 N   0  0  0  0  0  0  0  0  0  0  0  0
    7.1508    3.5828   -1.2432 C   0  0  0  0  0  0  0  0  0  0  0  0
    7.4985    3.8097    0.0952 C   0  0  0  0  0  0  0  0  0  0  0  0
    8.5020    4.7322    0.4450 C   0  0  0  0  0  0  0  0  0  0  0  0
    8.7548    5.0515    1.8990 C   0  0  0  0  0  0  0  0  0  0  0  0
   10.1805    4.9194    2.3976 C   0  0  0  0  0  0  0  0  0  0  0  0
   10.6613    5.7795    3.1337 O   0  0  0  0  0  0  0  0  0  0  0  0
   10.8396    3.7535    2.0233 N   0  0  0  0  0  0  0  0  0  0  0  0
   12.1696    3.5433    2.4735 C   0  0  0  0  0  0  0  0  0  0  0  0
   12.4519    3.5413    3.8423 C   0  0  0  0  0  0  0  0  0  0  0  0
   13.6892    3.4163    4.3676 N   0  0  0  0  0  0  0  0  0  0  0  0
   14.7057    3.4409    3.4830 C   0  0  0  0  0  0  0  0  0  0  0  0
   14.5490    3.5465    2.0963 C   0  0  0  0  0  0  0  0  0  0  0  0
   15.6430    3.7886    1.2516 C   0  0  0  0  0  0  0  0  0  0  0  0
   15.4651    3.8819   -0.1269 C   0  0  0  0  0  0  0  0  0  0  0  0
   14.2127    3.6402   -0.6794 C   0  0  0  0  0  0  0  0  0  0  0  0
   13.1127    3.4319    0.1536 C   0  0  0  0  0  0  0  0  0  0  0  0
   13.2456    3.4682    1.5619 C   0  0  0  0  0  0  0  0  0  0  0  0
    9.1750    5.4182   -0.5671 C   0  0  0  0  0  0  0  0  0  0  0  0
    8.8735    5.1599   -1.9028 C   0  0  0  0  0  0  0  0  0  0  0  0
    9.7024    6.0020   -3.1530 Cl  0  0  0  0  0  0  0  0  0  0  0  0
    7.8829    4.2390   -2.2389 C   0  0  0  0  0  0  0  0  0  0  0  0
    4.7994    4.0482   -3.1421 C   0  0  0  0  0  0  0  0  0  0  0  0
    2.7570    6.7161   -5.9215 H   0  0  0  0  0  0  0  0  0  0  0  0
    1.8690    5.2103   -5.6556 H   0  0  0  0  0  0  0  0  0  0  0  0
    3.3823    5.2288   -6.6434 H   0  0  0  0  0  0  0  0  0  0  0  0
    2.8602    3.0851   -5.7480 H   0  0  0  0  0  0  0  0  0  0  0  0
    2.5673   -0.4411   -6.4697 H   0  0  0  0  0  0  0  0  0  0  0  0
    3.2165    1.1319   -6.9419 H   0  0  0  0  0  0  0  0  0  0  0  0
    1.7408    1.0163   -5.9055 H   0  0  0  0  0  0  0  0  0  0  0  0
    5.0690    0.6627   -2.9590 H   0  0  0  0  0  0  0  0  0  0  0  0
    5.6044    2.3349   -0.7680 H   0  0  0  0  0  0  0  0  0  0  0  0
    6.9536    3.2908    0.8816 H   0  0  0  0  0  0  0  0  0  0  0  0
    8.1404    4.4155    2.5461 H   0  0  0  0  0  0  0  0  0  0  0  0
    8.4319    6.0856    2.0711 H   0  0  0  0  0  0  0  0  0  0  0  0
   10.6114    3.4235    1.0949 H   0  0  0  0  0  0  0  0  0  0  0  0
   11.6593    3.6467    4.5783 H   0  0  0  0  0  0  0  0  0  0  0  0
   15.6935    3.3892    3.9352 H   0  0  0  0  0  0  0  0  0  0  0  0
   16.6301    3.9731    1.6711 H   0  0  0  0  0  0  0  0  0  0  0  0
   16.3029    4.1434   -0.7677 H   0  0  0  0  0  0  0  0  0  0  0  0
   14.0816    3.6534   -1.7584 H   0  0  0  0  0  0  0  0  0  0  0  0
   12.1472    3.2700   -0.3170 H   0  0  0  0  0  0  0  0  0  0  0  0
    9.9267    6.1750   -0.3305 H   0  0  0  0  0  0  0  0  0  0  0  0
    7.6690    4.0470   -3.2882 H   0  0  0  0  0  0  0  0  0  0  0  0
    5.1164    4.9604   -2.6359 H   0  0  0  0  0  0  0  0  0  0  0  0
  1  2  1  0  0  0  0
  1 33  1  0  0  0  0
  1 34  1  0  0  0  0
  1 35  1  0  0  0  0
  2  3  1  0  0  0  0
  3  4  2  0  0  0  0
  3 32  1  0  0  0  0
  4  5  1  0  0  0  0
  4 36  1  0  0  0  0
  5  6  1  0  0  0  0
  5  8  2  0  0  0  0
  6  7  1  0  0  0  0
  7 37  1  0  0  0  0
  7 38  1  0  0  0  0
  7 39  1  0  0  0  0
  8  9  1  0  0  0  0
  8 40  1  0  0  0  0
  9 10  1  0  0  0  0
  9 32  2  0  0  0  0
 10 11  1  0  0  0  0
 10 41  1  0  0  0  0
 11 12  2  0  0  0  0
 11 31  1  0  0  0  0
 12 13  1  0  0  0  0
 12 42  1  0  0  0  0
 13 14  1  0  0  0  0
 13 28  2  0  0  0  0
 14 15  1  0  0  0  0
 14 43  1  0  0  0  0
 14 44  1  0  0  0  0
 15 16  2  0  0  0  0
 15 17  1  0  0  0  0
 17 18  1  0  0  0  0
 17 45  1  0  0  0  0
 18 19  2  0  0  0  0
 18 27  1  0  0  0  0
 19 20  1  0  0  0  0
 19 46  1  0  0  0  0
 20 21  2  0  0  0  0
 21 22  1  0  0  0  0
 21 47  1  0  0  0  0
 22 23  2  0  0  0  0
 22 27  1  0  0  0  0
 23 24  1  0  0  0  0
 23 48  1  0  0  0  0
 24 25  2  0  0  0  0
 24 49  1  0  0  0  0
 25 26  1  0  0  0  0
 25 50  1  0  0  0  0
 26 27  2  0  0  0  0
 26 51  1  0  0  0  0
 28 29  1  0  0  0  0
 28 52  1  0  0  0  0
 29 30  1  0  0  0  0
 29 31  2  0  0  0  0
 31 53  1  0  0  0  0
 32 54  1  0  0  0  0
M  END
$$$$
