
 OpenBabel07202414203D

 37 40  0  0  0  0  0  0  0  0999 V2000
    0.3460   -0.6054    0.4285 C   0  0  0  0  0  0  0  0  0  0  0  0
    1.0595    0.5579    0.7287 C   0  0  0  0  0  0  0  0  0  0  0  0
    1.6997    1.2922   -0.2807 C   0  0  0  0  0  0  0  0  0  0  0  0
    1.5938    0.8448   -1.6079 C   0  0  0  0  0  0  0  0  0  0  0  0
    0.8722   -0.3160   -1.9037 C   0  0  0  0  0  0  0  0  0  0  0  0
    0.2515   -1.0430   -0.8914 C   0  0  0  0  0  0  0  0  0  0  0  0
    0.7426   -0.8470   -3.5376 Cl  0  0  0  0  0  0  0  0  0  0  0  0
    2.4481    2.5612    0.0561 C   0  0  0  0  0  0  0  0  0  0  0  0
    1.5951    3.7278   -0.0194 N   0  0  0  0  0  0  0  0  0  0  0  0
    1.3278    4.4554   -1.2376 C   0  0  0  0  0  0  0  0  0  0  0  0
   -0.0272    5.0859   -0.9605 C   0  0  0  0  0  0  0  0  0  0  0  0
   -0.0382    5.1981    0.4758 N   0  0  0  0  0  0  0  0  0  0  0  0
    0.8171    4.2242    1.0343 C   0  0  0  0  0  0  0  0  0  0  0  0
    0.8569    3.8311    2.1869 O   0  0  0  0  0  0  0  0  0  0  0  0
   -1.1567    5.6692    1.1675 C   0  0  0  0  0  0  0  0  0  0  0  0
   -1.0242    6.3644    2.3807 C   0  0  0  0  0  0  0  0  0  0  0  0
    0.0420    6.8210    3.1886 C   0  0  0  0  0  0  0  0  0  0  0  0
   -0.3709    7.5309    4.2430 N   0  0  0  0  0  0  0  0  0  0  0  0
   -1.7100    7.4977    4.1328 N   0  0  0  0  0  0  0  0  0  0  0  0
   -2.1644    6.8393    3.0214 C   0  0  0  0  0  0  0  0  0  0  0  0
   -3.4447    6.6224    2.5237 C   0  0  0  0  0  0  0  0  0  0  0  0
   -3.4786    5.9670    1.3017 C   0  0  0  0  0  0  0  0  0  0  0  0
   -2.3940    5.5435    0.6103 N   0  0  0  0  0  0  0  0  0  0  0  0
   -0.1425   -1.1628    1.2236 H   0  0  0  0  0  0  0  0  0  0  0  0
    1.1069    0.8990    1.7635 H   0  0  0  0  0  0  0  0  0  0  0  0
    2.0702    1.3992   -2.4113 H   0  0  0  0  0  0  0  0  0  0  0  0
   -0.3109   -1.9444   -1.1231 H   0  0  0  0  0  0  0  0  0  0  0  0
    3.2997    2.7012   -0.6191 H   0  0  0  0  0  0  0  0  0  0  0  0
    2.8497    2.4844    1.0724 H   0  0  0  0  0  0  0  0  0  0  0  0
    1.3305    3.8166   -2.1210 H   0  0  0  0  0  0  0  0  0  0  0  0
    2.1128    5.2184   -1.3317 H   0  0  0  0  0  0  0  0  0  0  0  0
   -0.8310    4.4161   -1.2850 H   0  0  0  0  0  0  0  0  0  0  0  0
   -0.1363    6.0679   -1.4318 H   0  0  0  0  0  0  0  0  0  0  0  0
    1.1037    6.6842    3.0270 H   0  0  0  0  0  0  0  0  0  0  0  0
   -2.2582    7.9743    4.8395 H   0  0  0  0  0  0  0  0  0  0  0  0
   -4.3419    6.9565    3.0274 H   0  0  0  0  0  0  0  0  0  0  0  0
   -4.4317    5.7564    0.8214 H   0  0  0  0  0  0  0  0  0  0  0  0
  1  2  1  0  0  0  0
  1  6  2  0  0  0  0
  1 24  1  0  0  0  0
  2  3  2  0  0  0  0
  2 25  1  0  0  0  0
  3  4  1  0  0  0  0
  3  8  1  0  0  0  0
  4  5  2  0  0  0  0
  4 26  1  0  0  0  0
  5  6  1  0  0  0  0
  5  7  1  0  0  0  0
  6 27  1  0  0  0  0
  8  9  1  0  0  0  0
  8 28  1  0  0  0  0
  8 29  1  0  0  0  0
  9 10  1  0  0  0  0
  9 13  1  0  0  0  0
 10 11  1  0  0  0  0
 10 30  1  0  0  0  0
 10 31  1  0  0  0  0
 11 12  1  0  0  0  0
 11 32  1  0  0  0  0
 11 33  1  0  0  0  0
 12 13  1  0  0  0  0
 12 15  1  0  0  0  0
 13 14  2  0  0  0  0
 15 16  1  0  0  0  0
 15 23  2  0  0  0  0
 16 17  1  0  0  0  0
 16 20  2  0  0  0  0
 17 18  2  0  0  0  0
 17 34  1  0  0  0  0
 18 19  1  0  0  0  0
 19 20  1  0  0  0  0
 19 35  1  0  0  0  0
 20 21  1  0  0  0  0
 21 22  2  0  0  0  0
 21 36  1  0  0  0  0
 22 23  1  0  0  0  0
 22 37  1  0  0  0  0
M  END
$$$$
