
 OpenBabel07202414153D

 43 46  0  0  1  0  0  0  0  0999 V2000
    2.5695    0.4893   -1.1850 C   0  0  0  0  0  0  0  0  0  0  0  0
    2.1399   -0.1885    0.1436 C   0  0  1  0  0  0  0  0  0  0  0  0
    0.5822   -0.2789    0.1708 C   0  0  0  0  0  0  0  0  0  0  0  0
   -0.1053    0.2780   -0.6825 O   0  0  0  0  0  0  0  0  0  0  0  0
    0.0785   -1.0239    1.2241 N   0  0  0  0  0  0  0  0  0  0  0  0
   -1.2770   -1.2028    1.6129 C   0  0  0  0  0  0  0  0  0  0  0  0
   -2.3488   -0.6607    0.9031 C   0  0  0  0  0  0  0  0  0  0  0  0
   -3.6362   -0.6759    1.3239 N   0  0  0  0  0  0  0  0  0  0  0  0
   -3.8783   -1.2911    2.4990 C   0  0  0  0  0  0  0  0  0  0  0  0
   -2.9185   -1.9657    3.2511 C   0  0  0  0  0  0  0  0  0  0  0  0
   -3.2763   -2.6665    4.4194 C   0  0  0  0  0  0  0  0  0  0  0  0
   -2.3210   -3.3649    5.1528 C   0  0  0  0  0  0  0  0  0  0  0  0
   -0.9976   -3.3490    4.7398 C   0  0  0  0  0  0  0  0  0  0  0  0
   -0.6314   -2.6427    3.5897 C   0  0  0  0  0  0  0  0  0  0  0  0
   -1.5764   -1.9320    2.8038 C   0  0  0  0  0  0  0  0  0  0  0  0
    2.7174   -1.6219    0.0821 C   0  0  0  0  0  0  0  0  0  0  0  0
    2.5429   -2.3244    1.3804 N   0  0  0  0  0  0  0  0  0  0  0  0
    3.5415   -1.7146    2.6044 S   0  0  0  0  0  0  0  0  0  0  0  0
    2.9575   -2.1597    3.8487 O   0  0  0  0  0  0  0  0  0  0  0  0
    4.8955   -2.0300    2.2228 O   0  0  0  0  0  0  0  0  0  0  0  0
    3.3197    0.0307    2.4560 C   0  0  0  0  0  0  0  0  0  0  0  0
    3.8315    0.7996    3.5133 C   0  0  0  0  0  0  0  0  0  0  0  0
    3.7494    2.1877    3.4692 C   0  0  0  0  0  0  0  0  0  0  0  0
    3.1282    2.7985    2.3866 C   0  0  0  0  0  0  0  0  0  0  0  0
    3.0685    4.5159    2.3020 Cl  0  0  0  0  0  0  0  0  0  0  0  0
    2.5773    2.0313    1.3527 C   0  0  0  0  0  0  0  0  0  0  0  0
    2.6828    0.6220    1.3430 C   0  0  0  0  0  0  0  0  0  0  0  0
    3.6551    0.6386   -1.2212 H   0  0  0  0  0  0  0  0  0  0  0  0
    2.0961    1.4660   -1.3355 H   0  0  0  0  0  0  0  0  0  0  0  0
    2.2852   -0.1233   -2.0489 H   0  0  0  0  0  0  0  0  0  0  0  0
    0.7718   -1.4701    1.8121 H   0  0  0  0  0  0  0  0  0  0  0  0
   -2.2258   -0.1795   -0.0612 H   0  0  0  0  0  0  0  0  0  0  0  0
   -4.9129   -1.2312    2.8286 H   0  0  0  0  0  0  0  0  0  0  0  0
   -4.3113   -2.6878    4.7551 H   0  0  0  0  0  0  0  0  0  0  0  0
   -2.6096   -3.9247    6.0388 H   0  0  0  0  0  0  0  0  0  0  0  0
   -0.2408   -3.8900    5.3033 H   0  0  0  0  0  0  0  0  0  0  0  0
    0.4164   -2.6883    3.3146 H   0  0  0  0  0  0  0  0  0  0  0  0
    3.7814   -1.6230   -0.1901 H   0  0  0  0  0  0  0  0  0  0  0  0
    2.2009   -2.2144   -0.6826 H   0  0  0  0  0  0  0  0  0  0  0  0
    2.7723   -3.3197    1.2761 H   0  0  0  0  0  0  0  0  0  0  0  0
    4.3116    0.3190    4.3652 H   0  0  0  0  0  0  0  0  0  0  0  0
    4.1749    2.7825    4.2737 H   0  0  0  0  0  0  0  0  0  0  0  0
    2.0815    2.5587    0.5387 H   0  0  0  0  0  0  0  0  0  0  0  0
  1 28  1  0  0  0  0
  1 29  1  0  0  0  0
  1 30  1  0  0  0  0
  2 16  1  0  0  0  0
  2 27  1  0  0  0  0
  2  3  1  1  0  0  0
  2  1  1  0  0  0  0
  3  4  2  0  0  0  0
  3  5  1  0  0  0  0
  5  6  1  0  0  0  0
  5 31  1  0  0  0  0
  6  7  1  0  0  0  0
  6 15  2  0  0  0  0
  7  8  2  0  0  0  0
  7 32  1  0  0  0  0
  8  9  1  0  0  0  0
  9 10  2  0  0  0  0
  9 33  1  0  0  0  0
 10 11  1  0  0  0  0
 10 15  1  0  0  0  0
 11 12  2  0  0  0  0
 11 34  1  0  0  0  0
 12 13  1  0  0  0  0
 12 35  1  0  0  0  0
 13 14  2  0  0  0  0
 13 36  1  0  0  0  0
 14 15  1  0  0  0  0
 14 37  1  0  0  0  0
 16 17  1  0  0  0  0
 16 38  1  0  0  0  0
 16 39  1  0  0  0  0
 17 18  1  0  0  0  0
 17 40  1  0  0  0  0
 18 19  2  0  0  0  0
 18 20  2  0  0  0  0
 18 21  1  0  0  0  0
 21 22  1  0  0  0  0
 21 27  2  0  0  0  0
 22 23  2  0  0  0  0
 22 41  1  0  0  0  0
 23 24  1  0  0  0  0
 23 42  1  0  0  0  0
 24 25  1  0  0  0  0
 24 26  2  0  0  0  0
 26 27  1  0  0  0  0
 26 43  1  0  0  0  0
M  END
$$$$
