
 OpenBabel07202414183D

 59 62  0  0  1  0  0  0  0  0999 V2000
    1.3233    2.2026   -2.1878 Cl  0  0  0  0  0  0  0  0  0  0  0  0
    1.1717    1.0395   -0.9288 C   0  0  0  0  0  0  0  0  0  0  0  0
    0.4418    1.3458    0.2147 C   0  0  0  0  0  0  0  0  0  0  0  0
    0.3285    0.4001    1.2350 C   0  0  0  0  0  0  0  0  0  0  0  0
    0.9624   -0.8418    1.1186 C   0  0  0  0  0  0  0  0  0  0  0  0
    1.7228   -1.1526   -0.0194 C   0  0  0  0  0  0  0  0  0  0  0  0
    2.5159   -2.4561   -0.0939 C   0  0  3  0  0  0  0  0  0  0  0  0
    2.0752   -3.2461   -1.2379 N   0  0  0  0  0  0  0  0  0  0  0  0
    2.2070   -4.6114   -1.2944 C   0  0  0  0  0  0  0  0  0  0  0  0
    2.7026   -5.2613   -0.3768 O   0  0  0  0  0  0  0  0  0  0  0  0
    1.6857   -5.2421   -2.5893 C   0  0  0  0  0  0  0  0  0  0  0  0
    1.9119   -4.3597   -3.6934 O   0  0  0  0  0  0  0  0  0  0  0  0
    1.5980   -4.9747   -4.9404 C   0  0  0  0  0  0  0  0  0  0  0  0
    0.1037   -5.2411   -5.1570 C   0  0  0  0  0  0  0  0  0  0  0  0
   -0.3638   -6.3660   -4.9593 O   0  0  0  0  0  0  0  0  0  0  0  0
   -0.6842   -4.1750   -5.5217 N   0  0  0  0  0  0  0  0  0  0  0  0
   -0.2619   -2.8076   -5.7684 C   0  0  0  0  0  0  0  0  0  0  0  0
   -1.5070   -1.9968   -5.4554 C   0  0  0  0  0  0  0  0  0  0  0  0
   -2.6427   -2.9024   -5.9211 C   0  0  0  0  0  0  0  0  0  0  0  0
   -2.1180   -4.3178   -5.6992 C   0  0  0  0  0  0  0  0  0  0  0  0
    4.0521   -2.1758   -0.1508 C   0  0  0  0  0  0  0  0  0  0  0  0
    4.5104   -1.0679   -0.4293 O   0  0  0  0  0  0  0  0  0  0  0  0
    4.8590   -3.2857    0.0768 N   0  0  0  0  0  0  0  0  0  0  0  0
    6.2765   -3.1900   -0.0158 C   0  0  0  0  0  0  0  0  0  0  0  0
    6.9593   -2.1119    0.5507 C   0  0  0  0  0  0  0  0  0  0  0  0
    8.2978   -1.9275    0.4972 N   0  0  0  0  0  0  0  0  0  0  0  0
    8.9958   -2.8541   -0.1897 C   0  0  0  0  0  0  0  0  0  0  0  0
    8.4356   -3.9702   -0.8120 C   0  0  0  0  0  0  0  0  0  0  0  0
    9.2276   -4.8644   -1.5506 C   0  0  0  0  0  0  0  0  0  0  0  0
    8.6508   -5.9534   -2.1997 C   0  0  0  0  0  0  0  0  0  0  0  0
    7.2801   -6.1645   -2.1099 C   0  0  0  0  0  0  0  0  0  0  0  0
    6.4803   -5.2832   -1.3712 C   0  0  0  0  0  0  0  0  0  0  0  0
    7.0337   -4.1663   -0.7096 C   0  0  0  0  0  0  0  0  0  0  0  0
    1.7986   -0.1998   -1.0546 C   0  0  0  0  0  0  0  0  0  0  0  0
   -0.0288    2.3191    0.3224 H   0  0  0  0  0  0  0  0  0  0  0  0
   -0.2392    0.6401    2.1307 H   0  0  0  0  0  0  0  0  0  0  0  0
    0.8772   -1.5508    1.9396 H   0  0  0  0  0  0  0  0  0  0  0  0
    2.3351   -3.0419    0.8172 H   0  0  0  0  0  0  0  0  0  0  0  0
    1.8870   -2.7798   -2.1197 H   0  0  0  0  0  0  0  0  0  0  0  0
    0.6145   -5.4336   -2.4685 H   0  0  0  0  0  0  0  0  0  0  0  0
    2.2225   -6.1843   -2.7460 H   0  0  0  0  0  0  0  0  0  0  0  0
    2.1489   -5.9165   -5.0525 H   0  0  0  0  0  0  0  0  0  0  0  0
    1.9607   -4.3200   -5.7399 H   0  0  0  0  0  0  0  0  0  0  0  0
    0.0046   -2.7322   -6.8263 H   0  0  0  0  0  0  0  0  0  0  0  0
    0.5964   -2.5152   -5.1590 H   0  0  0  0  0  0  0  0  0  0  0  0
   -1.5103   -1.0212   -5.9484 H   0  0  0  0  0  0  0  0  0  0  0  0
   -1.5833   -1.8359   -4.3729 H   0  0  0  0  0  0  0  0  0  0  0  0
   -2.8437   -2.7369   -6.9854 H   0  0  0  0  0  0  0  0  0  0  0  0
   -3.5712   -2.7171   -5.3725 H   0  0  0  0  0  0  0  0  0  0  0  0
   -2.3109   -4.9585   -6.5671 H   0  0  0  0  0  0  0  0  0  0  0  0
   -2.5508   -4.7895   -4.8114 H   0  0  0  0  0  0  0  0  0  0  0  0
    4.4188   -4.1964   -0.0377 H   0  0  0  0  0  0  0  0  0  0  0  0
    6.4332   -1.3397    1.1073 H   0  0  0  0  0  0  0  0  0  0  0  0
   10.0638   -2.6576   -0.2410 H   0  0  0  0  0  0  0  0  0  0  0  0
   10.2999   -4.7048   -1.6410 H   0  0  0  0  0  0  0  0  0  0  0  0
    9.2703   -6.6301   -2.7824 H   0  0  0  0  0  0  0  0  0  0  0  0
    6.8255   -7.0067   -2.6233 H   0  0  0  0  0  0  0  0  0  0  0  0
    5.4126   -5.4769   -1.3524 H   0  0  0  0  0  0  0  0  0  0  0  0
    2.4048   -0.3979   -1.9369 H   0  0  0  0  0  0  0  0  0  0  0  0
  1  2  1  0  0  0  0
  2  3  1  0  0  0  0
  2 34  2  0  0  0  0
  3  4  2  0  0  0  0
  3 35  1  0  0  0  0
  4  5  1  0  0  0  0
  4 36  1  0  0  0  0
  5  6  2  0  0  0  0
  5 37  1  0  0  0  0
  6  7  1  0  0  0  0
  6 34  1  0  0  0  0
  7  8  1  0  0  0  0
  7 21  1  0  0  0  0
  7 38  1  0  0  0  0
  8  9  1  0  0  0  0
  8 39  1  0  0  0  0
  9 10  2  0  0  0  0
  9 11  1  0  0  0  0
 11 12  1  0  0  0  0
 11 40  1  0  0  0  0
 11 41  1  0  0  0  0
 12 13  1  0  0  0  0
 13 14  1  0  0  0  0
 13 42  1  0  0  0  0
 13 43  1  0  0  0  0
 14 15  2  0  0  0  0
 14 16  1  0  0  0  0
 16 17  1  0  0  0  0
 16 20  1  0  0  0  0
 17 18  1  0  0  0  0
 17 44  1  0  0  0  0
 17 45  1  0  0  0  0
 18 19  1  0  0  0  0
 18 46  1  0  0  0  0
 18 47  1  0  0  0  0
 19 20  1  0  0  0  0
 19 48  1  0  0  0  0
 19 49  1  0  0  0  0
 20 50  1  0  0  0  0
 20 51  1  0  0  0  0
 21 22  2  0  0  0  0
 21 23  1  0  0  0  0
 23 24  1  0  0  0  0
 23 52  1  0  0  0  0
 24 25  1  0  0  0  0
 24 33  2  0  0  0  0
 25 26  2  0  0  0  0
 25 53  1  0  0  0  0
 26 27  1  0  0  0  0
 27 28  2  0  0  0  0
 27 54  1  0  0  0  0
 28 29  1  0  0  0  0
 28 33  1  0  0  0  0
 29 30  2  0  0  0  0
 29 55  1  0  0  0  0
 30 31  1  0  0  0  0
 30 56  1  0  0  0  0
 31 32  2  0  0  0  0
 31 57  1  0  0  0  0
 32 33  1  0  0  0  0
 32 58  1  0  0  0  0
 34 59  1  0  0  0  0
M  END
$$$$
