
 OpenBabel07202414153D

 42 45  0  0  1  0  0  0  0  0999 V2000
    1.1475   -0.1866    0.1113 C   0  0  0  0  0  0  0  0  0  0  0  0
    2.6572   -0.0182    0.2287 C   0  0  2  0  0  0  0  0  0  0  0  0
    3.2923   -1.1335    1.0536 C   0  0  0  0  0  0  0  0  0  0  0  0
    4.7236   -1.1072    1.0015 O   0  0  0  0  0  0  0  0  0  0  0  0
    5.3208    0.1225    0.9842 C   0  0  0  0  0  0  0  0  0  0  0  0
    6.7092    0.1237    1.1127 C   0  0  0  0  0  0  0  0  0  0  0  0
    7.4072    1.3312    1.1499 C   0  0  0  0  0  0  0  0  0  0  0  0
    6.7212    2.5366    1.0660 C   0  0  0  0  0  0  0  0  0  0  0  0
    5.3390    2.5442    0.9166 C   0  0  0  0  0  0  0  0  0  0  0  0
    4.6278    1.3311    0.8804 C   0  0  0  0  0  0  0  0  0  0  0  0
    3.1255    1.3418    0.7741 C   0  0  2  0  0  0  0  0  0  0  0  0
    2.4563    1.7928    2.0863 C   0  0  0  0  0  0  0  0  0  0  0  0
    1.3554    2.3433    2.0198 O   0  0  0  0  0  0  0  0  0  0  0  0
    3.1209    1.5008    3.2759 N   0  0  0  0  0  0  0  0  0  0  0  0
    2.6168    1.8153    4.5724 C   0  0  0  0  0  0  0  0  0  0  0  0
    1.6308    2.7869    4.7547 C   0  0  0  0  0  0  0  0  0  0  0  0
    0.9059    2.9486    5.8825 N   0  0  0  0  0  0  0  0  0  0  0  0
    1.1733    2.0914    6.8842 C   0  0  0  0  0  0  0  0  0  0  0  0
    2.2229    1.1753    6.8796 C   0  0  0  0  0  0  0  0  0  0  0  0
    3.0305    1.0806    5.7199 C   0  0  0  0  0  0  0  0  0  0  0  0
    4.1763    0.2470    5.8063 C   0  0  0  0  0  0  0  0  0  0  0  0
    4.4584   -0.4954    6.9615 C   0  0  0  0  0  0  0  0  0  0  0  0
    3.5879   -0.4633    8.0428 C   0  0  0  0  0  0  0  0  0  0  0  0
    2.4726    0.3685    8.0027 C   0  0  0  0  0  0  0  0  0  0  0  0
    7.5737    4.0230    1.1529 Cl  0  0  0  0  0  0  0  0  0  0  0  0
    0.9028   -1.1612   -0.3234 H   0  0  0  0  0  0  0  0  0  0  0  0
    0.7209    0.5803   -0.5452 H   0  0  0  0  0  0  0  0  0  0  0  0
    0.6431   -0.1258    1.0837 H   0  0  0  0  0  0  0  0  0  0  0  0
    3.0577   -0.1071   -0.7921 H   0  0  0  0  0  0  0  0  0  0  0  0
    2.9838   -2.1080    0.6603 H   0  0  0  0  0  0  0  0  0  0  0  0
    2.9772   -1.1015    2.1024 H   0  0  0  0  0  0  0  0  0  0  0  0
    7.2505   -0.8174    1.1831 H   0  0  0  0  0  0  0  0  0  0  0  0
    8.4946    1.3227    1.2590 H   0  0  0  0  0  0  0  0  0  0  0  0
    4.8035    3.4903    0.8534 H   0  0  0  0  0  0  0  0  0  0  0  0
    2.8544    2.1030    0.0278 H   0  0  0  0  0  0  0  0  0  0  0  0
    3.8778    0.8311    3.2340 H   0  0  0  0  0  0  0  0  0  0  0  0
    1.3798    3.4995    3.9748 H   0  0  0  0  0  0  0  0  0  0  0  0
    0.5062    2.1854    7.7371 H   0  0  0  0  0  0  0  0  0  0  0  0
    4.8969    0.2027    4.9937 H   0  0  0  0  0  0  0  0  0  0  0  0
    5.3608   -1.1001    7.0167 H   0  0  0  0  0  0  0  0  0  0  0  0
    3.7822   -1.0655    8.9274 H   0  0  0  0  0  0  0  0  0  0  0  0
    1.8046    0.3986    8.8616 H   0  0  0  0  0  0  0  0  0  0  0  0
  1  2  1  0  0  0  0
  1 26  1  0  0  0  0
  1 27  1  0  0  0  0
  1 28  1  0  0  0  0
  2  3  1  0  0  0  0
  2 11  1  0  0  0  0
  2 29  1  6  0  0  0
  3  4  1  0  0  0  0
  3 30  1  0  0  0  0
  3 31  1  0  0  0  0
  4  5  1  0  0  0  0
  5  6  1  0  0  0  0
  5 10  2  0  0  0  0
  6  7  2  0  0  0  0
  6 32  1  0  0  0  0
  7  8  1  0  0  0  0
  7 33  1  0  0  0  0
  8  9  2  0  0  0  0
  8 25  1  0  0  0  0
  9 10  1  0  0  0  0
  9 34  1  0  0  0  0
 10 11  1  0  0  0  0
 11 12  1  0  0  0  0
 11 35  1  6  0  0  0
 12 13  2  0  0  0  0
 12 14  1  0  0  0  0
 14 15  1  0  0  0  0
 14 36  1  0  0  0  0
 15 16  1  0  0  0  0
 15 20  2  0  0  0  0
 16 17  2  0  0  0  0
 16 37  1  0  0  0  0
 17 18  1  0  0  0  0
 18 19  2  0  0  0  0
 18 38  1  0  0  0  0
 19 20  1  0  0  0  0
 19 24  1  0  0  0  0
 20 21  1  0  0  0  0
 21 22  2  0  0  0  0
 21 39  1  0  0  0  0
 22 23  1  0  0  0  0
 22 40  1  0  0  0  0
 23 24  2  0  0  0  0
 23 41  1  0  0  0  0
 24 42  1  0  0  0  0
M  END
$$$$
