
 OpenBabel07202414183D

 46 49  0  0  0  0  0  0  0  0999 V2000
    0.0287    3.4141   -2.7379 F   0  0  0  0  0  0  0  0  0  0  0  0
   -0.1970    2.0997   -2.5982 C   0  0  0  0  0  0  0  0  0  0  0  0
   -0.7509    1.4209   -3.6819 C   0  0  0  0  0  0  0  0  0  0  0  0
   -1.0430    0.0646   -3.5838 C   0  0  0  0  0  0  0  0  0  0  0  0
   -0.7726   -0.6111   -2.3944 C   0  0  0  0  0  0  0  0  0  0  0  0
   -0.2132    0.0728   -1.3097 C   0  0  0  0  0  0  0  0  0  0  0  0
    0.1377   -0.9186    0.2758 Br  0  0  0  0  0  0  0  0  0  0  0  0
    0.0985    1.4456   -1.3893 C   0  0  0  0  0  0  0  0  0  0  0  0
    0.6314    2.1290   -0.2660 N   0  0  0  0  0  0  0  0  0  0  0  0
    1.5582    3.1913   -0.2242 C   0  0  0  0  0  0  0  0  0  0  0  0
    2.5252    3.3886   -1.2131 C   0  0  0  0  0  0  0  0  0  0  0  0
    3.4235    4.4494   -1.1173 C   0  0  0  0  0  0  0  0  0  0  0  0
    4.6079    4.6790   -2.3452 Cl  0  0  0  0  0  0  0  0  0  0  0  0
    3.3752    5.3288   -0.0369 C   0  0  0  0  0  0  0  0  0  0  0  0
    2.4247    5.1441    0.9739 C   0  0  0  0  0  0  0  0  0  0  0  0
    2.3203    6.1314    2.1119 C   0  0  0  0  0  0  0  0  0  0  0  0
    2.3934    5.5219    3.4992 C   0  0  0  0  0  0  0  0  0  0  0  0
    1.6216    5.8817    4.3855 O   0  0  0  0  0  0  0  0  0  0  0  0
    3.4481    4.6474    3.6880 N   0  0  0  0  0  0  0  0  0  0  0  0
    3.6976    3.9848    4.9129 C   0  0  0  0  0  0  0  0  0  0  0  0
    2.6495    3.5043    5.6994 C   0  0  0  0  0  0  0  0  0  0  0  0
    2.8135    2.8247    6.8573 N   0  0  0  0  0  0  0  0  0  0  0  0
    4.0850    2.6492    7.2725 C   0  0  0  0  0  0  0  0  0  0  0  0
    5.2146    3.1018    6.5883 C   0  0  0  0  0  0  0  0  0  0  0  0
    6.5081    2.9244    7.1100 C   0  0  0  0  0  0  0  0  0  0  0  0
    7.6214    3.4269    6.4401 C   0  0  0  0  0  0  0  0  0  0  0  0
    7.4560    4.1046    5.2392 C   0  0  0  0  0  0  0  0  0  0  0  0
    6.1776    4.2766    4.7041 C   0  0  0  0  0  0  0  0  0  0  0  0
    5.0251    3.7808    5.3623 C   0  0  0  0  0  0  0  0  0  0  0  0
    1.5279    4.0668    0.8726 C   0  0  0  0  0  0  0  0  0  0  0  0
   -0.9657    1.9688   -4.5970 H   0  0  0  0  0  0  0  0  0  0  0  0
   -1.4872   -0.4623   -4.4253 H   0  0  0  0  0  0  0  0  0  0  0  0
   -1.0076   -1.6702   -2.3200 H   0  0  0  0  0  0  0  0  0  0  0  0
    0.7428    1.5124    0.5386 H   0  0  0  0  0  0  0  0  0  0  0  0
    2.5847    2.7156   -2.0631 H   0  0  0  0  0  0  0  0  0  0  0  0
    4.0696    6.1649    0.0031 H   0  0  0  0  0  0  0  0  0  0  0  0
    1.3595    6.6534    2.0190 H   0  0  0  0  0  0  0  0  0  0  0  0
    3.1062    6.8931    2.0431 H   0  0  0  0  0  0  0  0  0  0  0  0
    4.1885    4.6582    2.9997 H   0  0  0  0  0  0  0  0  0  0  0  0
    1.6123    3.6172    5.3965 H   0  0  0  0  0  0  0  0  0  0  0  0
    4.1738    2.1188    8.2195 H   0  0  0  0  0  0  0  0  0  0  0  0
    6.6533    2.4104    8.0585 H   0  0  0  0  0  0  0  0  0  0  0  0
    8.6151    3.3015    6.8623 H   0  0  0  0  0  0  0  0  0  0  0  0
    8.3196    4.5163    4.7228 H   0  0  0  0  0  0  0  0  0  0  0  0
    6.0979    4.8411    3.7797 H   0  0  0  0  0  0  0  0  0  0  0  0
    0.7644    3.9254    1.6380 H   0  0  0  0  0  0  0  0  0  0  0  0
  1  2  1  0  0  0  0
  2  3  2  0  0  0  0
  2  8  1  0  0  0  0
  3  4  1  0  0  0  0
  3 31  1  0  0  0  0
  4  5  2  0  0  0  0
  4 32  1  0  0  0  0
  5  6  1  0  0  0  0
  5 33  1  0  0  0  0
  6  7  1  0  0  0  0
  6  8  2  0  0  0  0
  8  9  1  0  0  0  0
  9 10  1  0  0  0  0
  9 34  1  0  0  0  0
 10 11  2  0  0  0  0
 10 30  1  0  0  0  0
 11 12  1  0  0  0  0
 11 35  1  0  0  0  0
 12 13  1  0  0  0  0
 12 14  2  0  0  0  0
 14 15  1  0  0  0  0
 14 36  1  0  0  0  0
 15 16  1  0  0  0  0
 15 30  2  0  0  0  0
 16 17  1  0  0  0  0
 16 37  1  0  0  0  0
 16 38  1  0  0  0  0
 17 18  2  0  0  0  0
 17 19  1  0  0  0  0
 19 20  1  0  0  0  0
 19 39  1  0  0  0  0
 20 21  2  0  0  0  0
 20 29  1  0  0  0  0
 21 22  1  0  0  0  0
 21 40  1  0  0  0  0
 22 23  2  0  0  0  0
 23 24  1  0  0  0  0
 23 41  1  0  0  0  0
 24 25  2  0  0  0  0
 24 29  1  0  0  0  0
 25 26  1  0  0  0  0
 25 42  1  0  0  0  0
 26 27  2  0  0  0  0
 26 43  1  0  0  0  0
 27 28  1  0  0  0  0
 27 44  1  0  0  0  0
 28 29  2  0  0  0  0
 28 45  1  0  0  0  0
 30 46  1  0  0  0  0
M  END
$$$$
