
 OpenBabel07202414193D

 47 51  0  0  1  0  0  0  0  0999 V2000
    1.2252   -0.7428    0.5598 O   0  0  0  0  0  0  0  0  0  0  0  0
    2.3970   -0.4053    0.5451 C   0  0  0  0  0  0  0  0  0  0  0  0
    3.0982   -0.1490   -0.6182 N   0  0  0  0  0  0  0  0  0  0  0  0
    4.5103    0.0570   -0.3746 C   0  0  2  0  0  0  0  0  0  0  0  0
    4.9507    1.5118   -0.5676 C   0  0  0  0  0  0  0  0  0  0  0  0
    5.1085    1.8861   -2.0288 C   0  0  0  0  0  0  0  0  0  0  0  0
    5.9897    0.8602   -2.7496 C   0  0  2  0  0  0  0  0  0  0  0  0
    6.2054    1.2784   -4.1974 C   0  0  0  0  0  0  0  0  0  0  0  0
    6.8822    2.4864   -4.4659 C   0  0  0  0  0  0  0  0  0  0  0  0
    7.1068    2.9188   -5.7734 C   0  0  0  0  0  0  0  0  0  0  0  0
    6.6689    2.1438   -6.8407 C   0  0  0  0  0  0  0  0  0  0  0  0
    6.0048    0.9414   -6.5973 C   0  0  0  0  0  0  0  0  0  0  0  0
    5.7755    0.5107   -5.2831 C   0  0  0  0  0  0  0  0  0  0  0  0
    5.3894   -0.4406   -2.6095 O   0  0  0  0  0  0  0  0  0  0  0  0
    5.3570   -0.8841   -1.2319 C   0  0  0  0  0  0  0  0  0  0  0  0
    4.5487   -0.1883    1.1417 C   0  0  0  0  0  0  0  0  0  0  0  0
    5.5756   -0.2514    1.8061 O   0  0  0  0  0  0  0  0  0  0  0  0
    3.2526   -0.2301    1.5956 N   0  0  0  0  0  0  0  0  0  0  0  0
    2.8390   -0.0434    2.9360 C   0  0  0  0  0  0  0  0  0  0  0  0
    2.0313   -0.9905    3.5576 C   0  0  0  0  0  0  0  0  0  0  0  0
    1.5659   -0.8816    4.8212 N   0  0  0  0  0  0  0  0  0  0  0  0
    1.8269    0.2771    5.4631 C   0  0  0  0  0  0  0  0  0  0  0  0
    2.4993    1.3587    4.9007 C   0  0  0  0  0  0  0  0  0  0  0  0
    2.5458    2.6064    5.5553 C   0  0  0  0  0  0  0  0  0  0  0  0
    3.1632    3.7022    4.9579 C   0  0  0  0  0  0  0  0  0  0  0  0
    3.8027    3.5430    3.7385 C   0  0  0  0  0  0  0  0  0  0  0  0
    3.7739    2.3031    3.0926 C   0  0  0  0  0  0  0  0  0  0  0  0
    3.0799    1.1866    3.6265 C   0  0  0  0  0  0  0  0  0  0  0  0
    2.6802   -0.2947   -1.5306 H   0  0  0  0  0  0  0  0  0  0  0  0
    5.9270    1.6544   -0.0800 H   0  0  0  0  0  0  0  0  0  0  0  0
    4.2619    2.2148   -0.0863 H   0  0  0  0  0  0  0  0  0  0  0  0
    5.5352    2.8945   -2.0836 H   0  0  0  0  0  0  0  0  0  0  0  0
    4.1156    1.9292   -2.4931 H   0  0  0  0  0  0  0  0  0  0  0  0
    6.9849    0.8103   -2.2881 H   0  0  0  0  0  0  0  0  0  0  0  0
    7.2438    3.1078   -3.6488 H   0  0  0  0  0  0  0  0  0  0  0  0
    7.6249    3.8569   -5.9554 H   0  0  0  0  0  0  0  0  0  0  0  0
    6.8492    2.4736   -7.8611 H   0  0  0  0  0  0  0  0  0  0  0  0
    5.6694    0.3348   -7.4354 H   0  0  0  0  0  0  0  0  0  0  0  0
    5.2523   -0.4298   -5.1235 H   0  0  0  0  0  0  0  0  0  0  0  0
    6.3851   -0.9718   -0.8630 H   0  0  0  0  0  0  0  0  0  0  0  0
    4.9285   -1.8942   -1.2346 H   0  0  0  0  0  0  0  0  0  0  0  0
    1.7259   -1.8999    3.0450 H   0  0  0  0  0  0  0  0  0  0  0  0
    1.4300    0.3262    6.4757 H   0  0  0  0  0  0  0  0  0  0  0  0
    2.0501    2.7448    6.5145 H   0  0  0  0  0  0  0  0  0  0  0  0
    3.1390    4.6760    5.4412 H   0  0  0  0  0  0  0  0  0  0  0  0
    4.3068    4.3864    3.2730 H   0  0  0  0  0  0  0  0  0  0  0  0
    4.2864    2.2381    2.1422 H   0  0  0  0  0  0  0  0  0  0  0  0
  1  2  2  0  0  0  0
  2  3  1  0  0  0  0
  2 18  1  0  0  0  0
  3  4  1  0  0  0  0
  3 29  1  0  0  0  0
  4  5  1  0  0  0  0
  4 15  1  0  0  0  0
  4 16  1  1  0  0  0
  5  6  1  0  0  0  0
  5 30  1  0  0  0  0
  5 31  1  0  0  0  0
  6  7  1  0  0  0  0
  6 32  1  0  0  0  0
  6 33  1  0  0  0  0
  7 14  1  0  0  0  0
  7  8  1  0  0  0  0
  7 34  1  1  0  0  0
  8  9  1  0  0  0  0
  8 13  2  0  0  0  0
  9 10  2  0  0  0  0
  9 35  1  0  0  0  0
 10 11  1  0  0  0  0
 10 36  1  0  0  0  0
 11 12  2  0  0  0  0
 11 37  1  0  0  0  0
 12 13  1  0  0  0  0
 12 38  1  0  0  0  0
 13 39  1  0  0  0  0
 14 15  1  0  0  0  0
 15 40  1  0  0  0  0
 15 41  1  0  0  0  0
 16 17  2  0  0  0  0
 16 18  1  0  0  0  0
 18 19  1  0  0  0  0
 19 20  1  0  0  0  0
 19 28  2  0  0  0  0
 20 21  2  0  0  0  0
 20 42  1  0  0  0  0
 21 22  1  0  0  0  0
 22 23  2  0  0  0  0
 22 43  1  0  0  0  0
 23 24  1  0  0  0  0
 23 28  1  0  0  0  0
 24 25  2  0  0  0  0
 24 44  1  0  0  0  0
 25 26  1  0  0  0  0
 25 45  1  0  0  0  0
 26 27  2  0  0  0  0
 26 46  1  0  0  0  0
 27 28  1  0  0  0  0
 27 47  1  0  0  0  0
M  END
$$$$
