
 OpenBabel07202414143D

 58 63  0  0  1  0  0  0  0  0999 V2000
    4.1305   -3.2786   -1.0862 C   0  0  0  0  0  0  0  0  0  0  0  0
    3.9389   -1.8713   -0.8896 N   0  0  0  0  0  0  0  0  0  0  0  0
    4.6382   -0.9507   -1.6363 C   0  0  0  0  0  0  0  0  0  0  0  0
    5.4343   -1.2572   -2.5185 O   0  0  0  0  0  0  0  0  0  0  0  0
    4.3580    0.5024   -1.2701 C   0  0  0  0  0  0  0  0  0  0  0  0
    4.7986    0.8485    0.1226 N   0  0  3  0  0  0  0  0  0  0  0  0
    4.4842    2.1759    0.6634 C   0  0  0  0  0  0  0  0  0  0  0  0
    5.5241    3.2493    0.4272 C   0  0  0  0  0  0  0  0  0  0  0  0
    5.1347    4.6016    0.4816 C   0  0  0  0  0  0  0  0  0  0  0  0
    6.0634    5.6304    0.3247 C   0  0  0  0  0  0  0  0  0  0  0  0
    7.4003    5.3177    0.1381 C   0  0  0  0  0  0  0  0  0  0  0  0
    8.5745    6.5629   -0.0421 Cl  0  0  0  0  0  0  0  0  0  0  0  0
    7.8009    3.9902    0.0925 C   0  0  0  0  0  0  0  0  0  0  0  0
    6.8772    2.9319    0.2278 C   0  0  0  0  0  0  0  0  0  0  0  0
    7.3234    1.4704    0.0542 C   0  0  3  0  0  0  0  0  0  0  0  0
    8.5659    1.1409    0.9305 C   0  0  0  0  0  0  0  0  0  0  0  0
    9.7296    0.9867   -0.0313 C   0  0  0  0  0  0  0  0  0  0  0  0
    9.2782    1.5433   -1.2705 N   0  0  0  0  0  0  0  0  0  0  0  0
   10.1889    1.7957   -2.3363 C   0  0  0  0  0  0  0  0  0  0  0  0
    9.9466    1.3072   -3.6197 C   0  0  0  0  0  0  0  0  0  0  0  0
   10.8620    1.3066   -4.6168 N   0  0  0  0  0  0  0  0  0  0  0  0
   12.0230    1.9435   -4.3696 C   0  0  0  0  0  0  0  0  0  0  0  0
   12.2867    2.6806   -3.2202 C   0  0  0  0  0  0  0  0  0  0  0  0
   13.4063    3.5337   -3.1560 C   0  0  0  0  0  0  0  0  0  0  0  0
   13.6479    4.3158   -2.0310 C   0  0  0  0  0  0  0  0  0  0  0  0
   12.7982    4.2185   -0.9409 C   0  0  0  0  0  0  0  0  0  0  0  0
   11.6819    3.3765   -1.0021 C   0  0  0  0  0  0  0  0  0  0  0  0
   11.3716    2.5881   -2.1471 C   0  0  0  0  0  0  0  0  0  0  0  0
    7.8897    1.3366   -1.3812 C   0  0  0  0  0  0  0  0  0  0  0  0
    7.2379    1.2681   -2.4122 O   0  0  0  0  0  0  0  0  0  0  0  0
    6.1913    0.4856    0.4434 C   0  0  0  0  0  0  0  0  0  0  0  0
    3.0262    1.0240   -1.8128 C   0  0  0  0  0  0  0  0  0  0  0  0
    4.3164    1.5418   -2.3684 C   0  0  0  0  0  0  0  0  0  0  0  0
    3.5140   -3.8300   -0.3743 H   0  0  0  0  0  0  0  0  0  0  0  0
    5.1857   -3.5217   -0.9331 H   0  0  0  0  0  0  0  0  0  0  0  0
    3.8428   -3.5392   -2.1102 H   0  0  0  0  0  0  0  0  0  0  0  0
    3.3659   -1.5219   -0.1203 H   0  0  0  0  0  0  0  0  0  0  0  0
    4.3804    2.0786    1.7526 H   0  0  0  0  0  0  0  0  0  0  0  0
    3.5073    2.5295    0.3216 H   0  0  0  0  0  0  0  0  0  0  0  0
    4.0891    4.8620    0.6425 H   0  0  0  0  0  0  0  0  0  0  0  0
    5.7435    6.6690    0.3536 H   0  0  0  0  0  0  0  0  0  0  0  0
    8.8505    3.7853   -0.0844 H   0  0  0  0  0  0  0  0  0  0  0  0
    8.4565    0.2080    1.4945 H   0  0  0  0  0  0  0  0  0  0  0  0
    8.7722    1.9224    1.6668 H   0  0  0  0  0  0  0  0  0  0  0  0
    9.9277   -0.0793   -0.2092 H   0  0  0  0  0  0  0  0  0  0  0  0
   10.6428    1.4270    0.3652 H   0  0  0  0  0  0  0  0  0  0  0  0
    9.0042    0.8434   -3.8970 H   0  0  0  0  0  0  0  0  0  0  0  0
   12.7580    1.8624   -5.1669 H   0  0  0  0  0  0  0  0  0  0  0  0
   14.0638    3.6416   -4.0169 H   0  0  0  0  0  0  0  0  0  0  0  0
   14.4791    5.0159   -2.0162 H   0  0  0  0  0  0  0  0  0  0  0  0
   12.9763    4.8229   -0.0549 H   0  0  0  0  0  0  0  0  0  0  0  0
   11.0198    3.4001   -0.1437 H   0  0  0  0  0  0  0  0  0  0  0  0
    6.2001    0.3954    1.5411 H   0  0  0  0  0  0  0  0  0  0  0  0
    6.4325   -0.5272    0.0986 H   0  0  0  0  0  0  0  0  0  0  0  0
    2.4119    1.6907   -1.2281 H   0  0  0  0  0  0  0  0  0  0  0  0
    2.4416    0.3723   -2.4552 H   0  0  0  0  0  0  0  0  0  0  0  0
    4.6142    2.5562   -2.1461 H   0  0  0  0  0  0  0  0  0  0  0  0
    4.6223    1.2226   -3.3598 H   0  0  0  0  0  0  0  0  0  0  0  0
  1  2  1  0  0  0  0
  1 34  1  0  0  0  0
  1 35  1  0  0  0  0
  1 36  1  0  0  0  0
  2  3  1  0  0  0  0
  2 37  1  0  0  0  0
  3  4  2  0  0  0  0
  3  5  1  0  0  0  0
  5  6  1  0  0  0  0
  5 32  1  0  0  0  0
  5 33  1  0  0  0  0
  6  7  1  0  0  0  0
  6 31  1  0  0  0  0
  7  8  1  0  0  0  0
  7 38  1  0  0  0  0
  7 39  1  0  0  0  0
  8  9  1  0  0  0  0
  8 14  2  0  0  0  0
  9 10  2  0  0  0  0
  9 40  1  0  0  0  0
 10 11  1  0  0  0  0
 10 41  1  0  0  0  0
 11 12  1  0  0  0  0
 11 13  2  0  0  0  0
 13 14  1  0  0  0  0
 13 42  1  0  0  0  0
 14 15  1  0  0  0  0
 15 16  1  0  0  0  0
 15 29  1  0  0  0  0
 15 31  1  0  0  0  0
 16 17  1  0  0  0  0
 16 43  1  0  0  0  0
 16 44  1  0  0  0  0
 17 18  1  0  0  0  0
 17 45  1  0  0  0  0
 17 46  1  0  0  0  0
 18 19  1  0  0  0  0
 18 29  1  0  0  0  0
 19 20  1  0  0  0  0
 19 28  2  0  0  0  0
 20 21  2  0  0  0  0
 20 47  1  0  0  0  0
 21 22  1  0  0  0  0
 22 23  2  0  0  0  0
 22 48  1  0  0  0  0
 23 24  1  0  0  0  0
 23 28  1  0  0  0  0
 24 25  2  0  0  0  0
 24 49  1  0  0  0  0
 25 26  1  0  0  0  0
 25 50  1  0  0  0  0
 26 27  2  0  0  0  0
 26 51  1  0  0  0  0
 27 28  1  0  0  0  0
 27 52  1  0  0  0  0
 29 30  2  0  0  0  0
 31 53  1  0  0  0  0
 31 54  1  0  0  0  0
 32 33  1  0  0  0  0
 32 55  1  0  0  0  0
 32 56  1  0  0  0  0
 33 57  1  0  0  0  0
 33 58  1  0  0  0  0
M  END
$$$$
