
 OpenBabel07202414203D

 39 42  0  0  1  0  0  0  0  0999 V2000
    0.9213   -0.1020    0.2512 O   0  0  0  0  0  0  0  0  0  0  0  0
    2.3298   -0.0601    0.0454 C   0  0  2  0  0  0  0  0  0  0  0  0
    2.6863    0.0443   -1.4476 C   0  0  0  0  0  0  0  0  0  0  0  0
    1.8659    0.7729   -2.3301 C   0  0  0  0  0  0  0  0  0  0  0  0
    2.1913    0.8970   -3.6859 C   0  0  0  0  0  0  0  0  0  0  0  0
    3.3645    0.3357   -4.1793 C   0  0  0  0  0  0  0  0  0  0  0  0
    4.2181   -0.3377   -3.3112 C   0  0  0  0  0  0  0  0  0  0  0  0
    5.6990   -0.9888   -3.8969 Cl  0  0  0  0  0  0  0  0  0  0  0  0
    3.8881   -0.4797   -1.9629 C   0  0  0  0  0  0  0  0  0  0  0  0
    2.8883   -1.2880    0.7646 C   0  0  0  0  0  0  0  0  0  0  0  0
    4.1863   -0.8425    1.4143 C   0  0  0  0  0  0  0  0  0  0  0  0
    4.2374    0.5919    1.3246 N   0  0  0  0  0  0  0  0  0  0  0  0
    5.4424    1.3666    1.4605 C   0  0  0  0  0  0  0  0  0  0  0  0
    5.5303    2.5835    0.7597 C   0  0  0  0  0  0  0  0  0  0  0  0
    6.6063    3.4005    0.7147 N   0  0  0  0  0  0  0  0  0  0  0  0
    7.6735    3.0070    1.4250 C   0  0  0  0  0  0  0  0  0  0  0  0
    7.7393    1.8330    2.1684 C   0  0  0  0  0  0  0  0  0  0  0  0
    8.9189    1.5406    2.8774 C   0  0  0  0  0  0  0  0  0  0  0  0
    9.0335    0.3781    3.6272 C   0  0  0  0  0  0  0  0  0  0  0  0
    7.9651   -0.4996    3.6788 C   0  0  0  0  0  0  0  0  0  0  0  0
    6.7811   -0.2038    2.9902 C   0  0  0  0  0  0  0  0  0  0  0  0
    6.6116    0.9686    2.1959 C   0  0  0  0  0  0  0  0  0  0  0  0
    3.0415    1.1008    0.7754 C   0  0  0  0  0  0  0  0  0  0  0  0
    2.6560    2.2629    0.7825 O   0  0  0  0  0  0  0  0  0  0  0  0
    0.4789   -0.2607   -0.5965 H   0  0  0  0  0  0  0  0  0  0  0  0
    0.9715    1.2805   -1.9712 H   0  0  0  0  0  0  0  0  0  0  0  0
    1.5344    1.4511   -4.3524 H   0  0  0  0  0  0  0  0  0  0  0  0
    3.6175    0.4398   -5.2288 H   0  0  0  0  0  0  0  0  0  0  0  0
    4.6041   -0.9829   -1.3214 H   0  0  0  0  0  0  0  0  0  0  0  0
    3.0359   -2.1517    0.1066 H   0  0  0  0  0  0  0  0  0  0  0  0
    2.1953   -1.6302    1.5454 H   0  0  0  0  0  0  0  0  0  0  0  0
    5.0535   -1.2953    0.9249 H   0  0  0  0  0  0  0  0  0  0  0  0
    4.1433   -1.1365    2.4665 H   0  0  0  0  0  0  0  0  0  0  0  0
    4.7232    2.9485    0.1311 H   0  0  0  0  0  0  0  0  0  0  0  0
    8.5152    3.6943    1.3744 H   0  0  0  0  0  0  0  0  0  0  0  0
    9.7627    2.2285    2.8532 H   0  0  0  0  0  0  0  0  0  0  0  0
    9.9480    0.1638    4.1736 H   0  0  0  0  0  0  0  0  0  0  0  0
    8.0383   -1.4135    4.2645 H   0  0  0  0  0  0  0  0  0  0  0  0
    5.9878   -0.9250    3.1177 H   0  0  0  0  0  0  0  0  0  0  0  0
  1 25  1  0  0  0  0
  2  1  1  1  0  0  0
  2  3  1  0  0  0  0
  2 10  1  0  0  0  0
  2 23  1  0  0  0  0
  3  4  1  0  0  0  0
  3  9  2  0  0  0  0
  4  5  2  0  0  0  0
  4 26  1  0  0  0  0
  5  6  1  0  0  0  0
  5 27  1  0  0  0  0
  6  7  2  0  0  0  0
  6 28  1  0  0  0  0
  7  8  1  0  0  0  0
  7  9  1  0  0  0  0
  9 29  1  0  0  0  0
 10 11  1  0  0  0  0
 10 30  1  0  0  0  0
 10 31  1  0  0  0  0
 11 12  1  0  0  0  0
 11 32  1  0  0  0  0
 11 33  1  0  0  0  0
 12 13  1  0  0  0  0
 12 23  1  0  0  0  0
 13 14  1  0  0  0  0
 13 22  2  0  0  0  0
 14 15  2  0  0  0  0
 14 34  1  0  0  0  0
 15 16  1  0  0  0  0
 16 17  2  0  0  0  0
 16 35  1  0  0  0  0
 17 18  1  0  0  0  0
 17 22  1  0  0  0  0
 18 19  2  0  0  0  0
 18 36  1  0  0  0  0
 19 20  1  0  0  0  0
 19 37  1  0  0  0  0
 20 21  2  0  0  0  0
 20 38  1  0  0  0  0
 21 22  1  0  0  0  0
 21 39  1  0  0  0  0
 23 24  2  0  0  0  0
M  END
$$$$
