
 OpenBabel07202414123D

 64 68  0  0  1  0  0  0  0  0999 V2000
   -3.3557    6.1763   -6.0670 C   0  0  0  0  0  0  0  0  0  0  0  0
   -3.3486    6.1764   -4.5345 C   0  0  0  0  0  0  0  0  0  0  0  0
   -4.7709    6.4939   -4.0234 C   0  0  0  0  0  0  0  0  0  0  0  0
   -2.9427    4.8023   -3.9721 C   0  0  0  0  0  0  0  0  0  0  0  0
   -1.6470    4.2886   -4.3837 N   0  0  0  0  0  0  0  0  0  0  0  0
   -1.3116    3.0004   -4.0021 C   0  0  0  0  0  0  0  0  0  0  0  0
   -2.0964    2.2743   -3.4020 O   0  0  0  0  0  0  0  0  0  0  0  0
    0.0796    2.5202   -4.4050 C   0  0  0  0  0  0  0  0  0  0  0  0
    0.2186    2.4391   -5.8684 N   0  0  0  0  0  0  0  0  0  0  0  0
   -0.7030    1.4814   -6.5029 C   0  0  0  0  0  0  0  0  0  0  0  0
   -0.2908    0.0235   -6.4404 C   0  0  0  0  0  0  0  0  0  0  0  0
   -1.2787   -0.9656   -6.5921 C   0  0  0  0  0  0  0  0  0  0  0  0
   -0.9401   -2.3218   -6.5882 C   0  0  0  0  0  0  0  0  0  0  0  0
    0.3889   -2.7023   -6.4684 C   0  0  0  0  0  0  0  0  0  0  0  0
    0.8285   -4.3705   -6.4588 Cl  0  0  0  0  0  0  0  0  0  0  0  0
    1.3823   -1.7334   -6.3410 C   0  0  0  0  0  0  0  0  0  0  0  0
    1.0570   -0.3592   -6.3203 C   0  0  0  0  0  0  0  0  0  0  0  0
    2.1416    0.6957   -6.0940 C   0  0  3  0  0  0  0  0  0  0  0  0
    3.2920    0.5510   -7.0993 C   0  0  0  0  0  0  0  0  0  0  0  0
    4.4343   -0.0827   -6.3534 C   0  0  0  0  0  0  0  0  0  0  0  0
    4.0102   -0.3492   -5.0189 N   0  0  0  0  0  0  0  0  0  0  0  0
    4.7624   -1.1559   -4.0895 C   0  0  0  0  0  0  0  0  0  0  0  0
    4.1664   -1.5228   -2.8720 C   0  0  0  0  0  0  0  0  0  0  0  0
    4.7847   -2.1748   -1.8588 N   0  0  0  0  0  0  0  0  0  0  0  0
    6.0593   -2.5416   -2.0745 C   0  0  0  0  0  0  0  0  0  0  0  0
    6.7326   -2.3877   -3.2819 C   0  0  0  0  0  0  0  0  0  0  0  0
    8.0192   -2.9488   -3.4321 C   0  0  0  0  0  0  0  0  0  0  0  0
    8.7219   -2.8422   -4.6262 C   0  0  0  0  0  0  0  0  0  0  0  0
    8.1574   -2.1429   -5.6702 C   0  0  0  0  0  0  0  0  0  0  0  0
    6.8940   -1.5624   -5.5144 C   0  0  0  0  0  0  0  0  0  0  0  0
    6.0973   -1.6740   -4.3325 C   0  0  0  0  0  0  0  0  0  0  0  0
    2.8356    0.3868   -4.7355 C   0  0  0  0  0  0  0  0  0  0  0  0
    2.3899    0.6536   -3.6268 O   0  0  0  0  0  0  0  0  0  0  0  0
    1.6026    2.1448   -6.2594 C   0  0  0  0  0  0  0  0  0  0  0  0
   -2.4199    7.2070   -4.0463 C   0  0  0  0  0  0  0  0  0  0  0  0
   -1.6762    8.0184   -3.6632 N   0  0  0  0  0  0  0  0  0  0  0  0
   -4.0425    5.4198   -6.4635 H   0  0  0  0  0  0  0  0  0  0  0  0
   -2.3595    5.9719   -6.4766 H   0  0  0  0  0  0  0  0  0  0  0  0
   -3.6696    7.1504   -6.4635 H   0  0  0  0  0  0  0  0  0  0  0  0
   -5.4960    5.7564   -4.3893 H   0  0  0  0  0  0  0  0  0  0  0  0
   -5.1065    7.4844   -4.3503 H   0  0  0  0  0  0  0  0  0  0  0  0
   -4.8112    6.4812   -2.9276 H   0  0  0  0  0  0  0  0  0  0  0  0
   -3.6857    4.0538   -4.2783 H   0  0  0  0  0  0  0  0  0  0  0  0
   -2.9449    4.8186   -2.8745 H   0  0  0  0  0  0  0  0  0  0  0  0
   -0.8827    4.9114   -4.6168 H   0  0  0  0  0  0  0  0  0  0  0  0
    0.2435    1.5580   -3.9187 H   0  0  0  0  0  0  0  0  0  0  0  0
    0.8005    3.2415   -4.0016 H   0  0  0  0  0  0  0  0  0  0  0  0
   -0.7736    1.7437   -7.5680 H   0  0  0  0  0  0  0  0  0  0  0  0
   -1.7199    1.6032   -6.1114 H   0  0  0  0  0  0  0  0  0  0  0  0
   -2.3189   -0.6939   -6.7066 H   0  0  0  0  0  0  0  0  0  0  0  0
   -1.7111   -3.0803   -6.6906 H   0  0  0  0  0  0  0  0  0  0  0  0
    2.4111   -2.0697   -6.2428 H   0  0  0  0  0  0  0  0  0  0  0  0
    3.6377    1.5136   -7.4963 H   0  0  0  0  0  0  0  0  0  0  0  0
    3.0168   -0.0520   -7.9715 H   0  0  0  0  0  0  0  0  0  0  0  0
    5.2665    0.6289   -6.2940 H   0  0  0  0  0  0  0  0  0  0  0  0
    4.6997   -1.0062   -6.8687 H   0  0  0  0  0  0  0  0  0  0  0  0
    3.1170   -1.3318   -2.6614 H   0  0  0  0  0  0  0  0  0  0  0  0
    6.5456   -2.9929   -1.2120 H   0  0  0  0  0  0  0  0  0  0  0  0
    8.4777   -3.5011   -2.6142 H   0  0  0  0  0  0  0  0  0  0  0  0
    9.6978   -3.3036   -4.7427 H   0  0  0  0  0  0  0  0  0  0  0  0
    8.6852   -2.0345   -6.6153 H   0  0  0  0  0  0  0  0  0  0  0  0
    6.5718   -1.0237   -6.3901 H   0  0  0  0  0  0  0  0  0  0  0  0
    1.6350    2.3905   -7.3324 H   0  0  0  0  0  0  0  0  0  0  0  0
    2.2893    2.8655   -5.7957 H   0  0  0  0  0  0  0  0  0  0  0  0
  1  2  1  0  0  0  0
  1 37  1  0  0  0  0
  1 38  1  0  0  0  0
  1 39  1  0  0  0  0
  2  3  1  0  0  0  0
  2  4  1  0  0  0  0
  2 35  1  0  0  0  0
  3 40  1  0  0  0  0
  3 41  1  0  0  0  0
  3 42  1  0  0  0  0
  4  5  1  0  0  0  0
  4 43  1  0  0  0  0
  4 44  1  0  0  0  0
  5  6  1  0  0  0  0
  5 45  1  0  0  0  0
  6  7  2  0  0  0  0
  6  8  1  0  0  0  0
  8  9  1  0  0  0  0
  8 46  1  0  0  0  0
  8 47  1  0  0  0  0
  9 10  1  0  0  0  0
  9 34  1  0  0  0  0
 10 11  1  0  0  0  0
 10 48  1  0  0  0  0
 10 49  1  0  0  0  0
 11 12  1  0  0  0  0
 11 17  2  0  0  0  0
 12 13  2  0  0  0  0
 12 50  1  0  0  0  0
 13 14  1  0  0  0  0
 13 51  1  0  0  0  0
 14 15  1  0  0  0  0
 14 16  2  0  0  0  0
 16 17  1  0  0  0  0
 16 52  1  0  0  0  0
 17 18  1  0  0  0  0
 18 19  1  0  0  0  0
 18 32  1  0  0  0  0
 18 34  1  0  0  0  0
 19 20  1  0  0  0  0
 19 53  1  0  0  0  0
 19 54  1  0  0  0  0
 20 21  1  0  0  0  0
 20 55  1  0  0  0  0
 20 56  1  0  0  0  0
 21 22  1  0  0  0  0
 21 32  1  0  0  0  0
 22 23  1  0  0  0  0
 22 31  2  0  0  0  0
 23 24  2  0  0  0  0
 23 57  1  0  0  0  0
 24 25  1  0  0  0  0
 25 26  2  0  0  0  0
 25 58  1  0  0  0  0
 26 27  1  0  0  0  0
 26 31  1  0  0  0  0
 27 28  2  0  0  0  0
 27 59  1  0  0  0  0
 28 29  1  0  0  0  0
 28 60  1  0  0  0  0
 29 30  2  0  0  0  0
 29 61  1  0  0  0  0
 30 31  1  0  0  0  0
 30 62  1  0  0  0  0
 32 33  2  0  0  0  0
 34 63  1  0  0  0  0
 34 64  1  0  0  0  0
 35 36  3  0  0  0  0
M  END
$$$$
