
 OpenBabel07202414143D

 54 57  0  0  1  0  0  0  0  0999 V2000
    4.8985   -0.9320   -1.9889 C   0  0  0  0  0  0  0  0  0  0  0  0
    3.5454   -1.3719   -2.0233 O   0  0  0  0  0  0  0  0  0  0  0  0
    2.5497   -0.3978   -1.6251 C   0  0  3  0  0  0  0  0  0  0  0  0
    2.5798    0.8778   -2.6109 C   0  0  0  0  0  0  0  0  0  0  0  0
    2.2938    1.9948   -2.2705 O   0  0  0  0  0  0  0  0  0  0  0  0
    2.9961    0.5542   -3.9152 N   0  0  0  0  0  0  0  0  0  0  0  0
    3.1701    1.4123   -5.0393 C   0  0  0  0  0  0  0  0  0  0  0  0
    2.9400    2.7861   -5.0670 C   0  0  0  0  0  0  0  0  0  0  0  0
    3.4789    3.6069   -6.0086 N   0  0  0  0  0  0  0  0  0  0  0  0
    4.1478    2.9884   -6.9823 C   0  0  0  0  0  0  0  0  0  0  0  0
    3.8983    1.6720   -7.3162 C   0  0  0  0  0  0  0  0  0  0  0  0
    3.8249    1.2396   -8.6434 C   0  0  0  0  0  0  0  0  0  0  0  0
    3.5713   -0.1051   -8.9057 C   0  0  0  0  0  0  0  0  0  0  0  0
    3.3313   -0.6707  -10.5691 S   0  0  0  0  0  0  0  0  0  0  0  0
    3.9287    0.2653  -11.4617 O   0  0  0  0  0  0  0  0  0  0  0  0
    3.7248   -2.0792  -10.5712 O   0  0  0  0  0  0  0  0  0  0  0  0
    1.6285   -0.6251  -10.8083 N   0  0  0  0  0  0  0  0  0  0  0  0
    1.0049    0.7207  -10.9137 C   0  0  0  0  0  0  0  0  0  0  0  0
    1.2291   -1.4444  -11.9875 C   0  0  0  0  0  0  0  0  0  0  0  0
    3.5311   -1.0291   -7.8657 C   0  0  0  0  0  0  0  0  0  0  0  0
    3.5112   -0.5707   -6.5521 C   0  0  0  0  0  0  0  0  0  0  0  0
    3.5611    0.8109   -6.2623 C   0  0  0  0  0  0  0  0  0  0  0  0
    2.7338    0.0267   -0.1495 C   0  0  0  0  0  0  0  0  0  0  0  0
    2.5948   -1.2121    0.7318 C   0  0  0  0  0  0  0  0  0  0  0  0
    1.2399   -1.6489    0.7464 O   0  0  0  0  0  0  0  0  0  0  0  0
    0.7048   -1.7966   -0.5076 C   0  0  0  0  0  0  0  0  0  0  0  0
   -0.4346   -2.6089   -0.5374 C   0  0  0  0  0  0  0  0  0  0  0  0
   -1.0701   -2.8678   -1.7431 C   0  0  0  0  0  0  0  0  0  0  0  0
   -0.5596   -2.3044   -2.9098 C   0  0  0  0  0  0  0  0  0  0  0  0
   -1.3270   -2.6590   -4.4105 Cl  0  0  0  0  0  0  0  0  0  0  0  0
    0.5795   -1.4855   -2.8861 C   0  0  0  0  0  0  0  0  0  0  0  0
    1.2349   -1.2009   -1.6781 C   0  0  0  0  0  0  0  0  0  0  0  0
    5.4967   -1.6874   -2.5040 H   0  0  0  0  0  0  0  0  0  0  0  0
    5.2633   -0.8434   -0.9654 H   0  0  0  0  0  0  0  0  0  0  0  0
    5.0245    0.0184   -2.5099 H   0  0  0  0  0  0  0  0  0  0  0  0
    3.4013   -0.3667   -4.0061 H   0  0  0  0  0  0  0  0  0  0  0  0
    2.3406    3.3279   -4.3509 H   0  0  0  0  0  0  0  0  0  0  0  0
    5.1788    3.3569   -7.1050 H   0  0  0  0  0  0  0  0  0  0  0  0
    3.7998    1.9891   -9.4376 H   0  0  0  0  0  0  0  0  0  0  0  0
    1.1870    1.3453  -10.0395 H   0  0  0  0  0  0  0  0  0  0  0  0
   -0.0859    0.5972  -10.9860 H   0  0  0  0  0  0  0  0  0  0  0  0
    1.3483    1.2463  -11.8130 H   0  0  0  0  0  0  0  0  0  0  0  0
    1.6171   -2.4635  -11.9117 H   0  0  0  0  0  0  0  0  0  0  0  0
    1.5941   -0.9821  -12.9118 H   0  0  0  0  0  0  0  0  0  0  0  0
    0.1391   -1.5168  -12.0385 H   0  0  0  0  0  0  0  0  0  0  0  0
    3.3995   -2.0875   -8.0706 H   0  0  0  0  0  0  0  0  0  0  0  0
    3.3228   -1.3127   -5.7809 H   0  0  0  0  0  0  0  0  0  0  0  0
    1.9587    0.7508    0.1431 H   0  0  0  0  0  0  0  0  0  0  0  0
    3.7028    0.5022    0.0306 H   0  0  0  0  0  0  0  0  0  0  0  0
    2.8688   -0.9861    1.7681 H   0  0  0  0  0  0  0  0  0  0  0  0
    3.2305   -2.0495    0.4167 H   0  0  0  0  0  0  0  0  0  0  0  0
   -0.8031   -3.0640    0.3809 H   0  0  0  0  0  0  0  0  0  0  0  0
   -1.9411   -3.5171   -1.7648 H   0  0  0  0  0  0  0  0  0  0  0  0
    0.9625   -1.1026   -3.8255 H   0  0  0  0  0  0  0  0  0  0  0  0
  1  2  1  0  0  0  0
  1 33  1  0  0  0  0
  1 34  1  0  0  0  0
  1 35  1  0  0  0  0
  2  3  1  0  0  0  0
  3  4  1  0  0  0  0
  3 23  1  0  0  0  0
  3 32  1  0  0  0  0
  4  5  2  0  0  0  0
  4  6  1  0  0  0  0
  6  7  1  0  0  0  0
  6 36  1  0  0  0  0
  7  8  1  0  0  0  0
  7 22  2  0  0  0  0
  8  9  2  0  0  0  0
  8 37  1  0  0  0  0
  9 10  1  0  0  0  0
 10 11  2  0  0  0  0
 10 38  1  0  0  0  0
 11 12  1  0  0  0  0
 11 22  1  0  0  0  0
 12 13  2  0  0  0  0
 12 39  1  0  0  0  0
 13 14  1  0  0  0  0
 13 20  1  0  0  0  0
 14 15  2  0  0  0  0
 14 16  2  0  0  0  0
 14 17  1  0  0  0  0
 17 18  1  0  0  0  0
 17 19  1  0  0  0  0
 18 40  1  0  0  0  0
 18 41  1  0  0  0  0
 18 42  1  0  0  0  0
 19 43  1  0  0  0  0
 19 44  1  0  0  0  0
 19 45  1  0  0  0  0
 20 21  2  0  0  0  0
 20 46  1  0  0  0  0
 21 22  1  0  0  0  0
 21 47  1  0  0  0  0
 23 24  1  0  0  0  0
 23 48  1  0  0  0  0
 23 49  1  0  0  0  0
 24 25  1  0  0  0  0
 24 50  1  0  0  0  0
 24 51  1  0  0  0  0
 25 26  1  0  0  0  0
 26 27  1  0  0  0  0
 26 32  2  0  0  0  0
 27 28  2  0  0  0  0
 27 52  1  0  0  0  0
 28 29  1  0  0  0  0
 28 53  1  0  0  0  0
 29 30  1  0  0  0  0
 29 31  2  0  0  0  0
 31 32  1  0  0  0  0
 31 54  1  0  0  0  0
M  END
$$$$
