
 OpenBabel07202414173D

 50 54  0  0  1  0  0  0  0  0999 V2000
    0.9902    0.1247   -0.0381 Cl  0  0  0  0  0  0  0  0  0  0  0  0
    2.7019    0.0765    0.1247 C   0  0  0  0  0  0  0  0  0  0  0  0
    3.4392    1.2457   -0.0283 C   0  0  0  0  0  0  0  0  0  0  0  0
    4.8305    1.1996    0.0541 C   0  0  0  0  0  0  0  0  0  0  0  0
    5.4935   -0.0158    0.2932 C   0  0  0  0  0  0  0  0  0  0  0  0
    4.7431   -1.1914    0.4753 C   0  0  0  0  0  0  0  0  0  0  0  0
    3.3421   -1.1354    0.3872 C   0  0  0  0  0  0  0  0  0  0  0  0
    5.4425   -2.5133    0.7336 C   0  0  3  0  0  0  0  0  0  0  0  0
    5.3838   -2.9626    2.2040 C   0  0  0  0  0  0  0  0  0  0  0  0
    4.8482   -4.0282    2.5002 O   0  0  0  0  0  0  0  0  0  0  0  0
    5.9844   -2.0903    3.0853 N   0  0  0  0  0  0  0  0  0  0  0  0
    5.9891   -2.1415    4.5073 C   0  0  0  0  0  0  0  0  0  0  0  0
    5.3637   -3.1607    5.2298 C   0  0  0  0  0  0  0  0  0  0  0  0
    5.1732   -3.1403    6.5692 N   0  0  0  0  0  0  0  0  0  0  0  0
    5.6720   -2.0825    7.2349 C   0  0  0  0  0  0  0  0  0  0  0  0
    6.4423   -1.0785    6.6527 C   0  0  0  0  0  0  0  0  0  0  0  0
    7.0546   -0.0830    7.4442 C   0  0  0  0  0  0  0  0  0  0  0  0
    7.8505    0.8953    6.8601 C   0  0  0  0  0  0  0  0  0  0  0  0
    8.0178    0.9149    5.4818 C   0  0  0  0  0  0  0  0  0  0  0  0
    7.4018   -0.0586    4.6873 C   0  0  0  0  0  0  0  0  0  0  0  0
    6.6073   -1.0917    5.2483 C   0  0  0  0  0  0  0  0  0  0  0  0
    6.8850   -2.4958    0.2097 C   0  0  0  0  0  0  0  0  0  0  0  0
    7.6478   -1.3027    0.7185 N   0  0  0  0  0  0  0  0  0  0  0  0
    9.3223   -1.2846    0.2503 S   0  0  0  0  0  0  0  0  0  0  0  0
    9.3999   -1.8494   -1.0770 O   0  0  0  0  0  0  0  0  0  0  0  0
    9.7888    0.0645    0.5034 O   0  0  0  0  0  0  0  0  0  0  0  0
   10.3819   -2.2946    1.3070 C   0  0  0  0  0  0  0  0  0  0  0  0
   10.0690   -3.7603    1.3726 C   0  0  0  0  0  0  0  0  0  0  0  0
    9.7714   -2.8669    2.5497 C   0  0  0  0  0  0  0  0  0  0  0  0
    7.0052   -0.0314    0.2437 C   0  0  0  0  0  0  0  0  0  0  0  0
    2.9422    2.1909   -0.2319 H   0  0  0  0  0  0  0  0  0  0  0  0
    5.3992    2.1165   -0.0958 H   0  0  0  0  0  0  0  0  0  0  0  0
    2.7482   -2.0413    0.4972 H   0  0  0  0  0  0  0  0  0  0  0  0
    4.9092   -3.2849    0.1596 H   0  0  0  0  0  0  0  0  0  0  0  0
    6.3798   -1.2561    2.6676 H   0  0  0  0  0  0  0  0  0  0  0  0
    4.9789   -4.0561    4.7578 H   0  0  0  0  0  0  0  0  0  0  0  0
    5.4369   -2.0691    8.2983 H   0  0  0  0  0  0  0  0  0  0  0  0
    6.9370   -0.0910    8.5264 H   0  0  0  0  0  0  0  0  0  0  0  0
    8.3480    1.6368    7.4797 H   0  0  0  0  0  0  0  0  0  0  0  0
    8.6397    1.6767    5.0194 H   0  0  0  0  0  0  0  0  0  0  0  0
    7.5963   -0.0074    3.6197 H   0  0  0  0  0  0  0  0  0  0  0  0
    6.8606   -2.4617   -0.8882 H   0  0  0  0  0  0  0  0  0  0  0  0
    7.3756   -3.4214    0.5097 H   0  0  0  0  0  0  0  0  0  0  0  0
   11.4238   -2.0026    1.3236 H   0  0  0  0  0  0  0  0  0  0  0  0
   10.9089   -4.4421    1.4473 H   0  0  0  0  0  0  0  0  0  0  0  0
    9.2567   -4.1643    0.7895 H   0  0  0  0  0  0  0  0  0  0  0  0
   10.4102   -2.9605    3.4229 H   0  0  0  0  0  0  0  0  0  0  0  0
    8.7420   -2.6475    2.7939 H   0  0  0  0  0  0  0  0  0  0  0  0
    7.2985    0.1681   -0.7950 H   0  0  0  0  0  0  0  0  0  0  0  0
    7.3653    0.7811    0.8870 H   0  0  0  0  0  0  0  0  0  0  0  0
  1  2  1  0  0  0  0
  2  3  1  0  0  0  0
  2  7  2  0  0  0  0
  3  4  2  0  0  0  0
  3 31  1  0  0  0  0
  4  5  1  0  0  0  0
  4 32  1  0  0  0  0
  5  6  2  0  0  0  0
  5 30  1  0  0  0  0
  6  7  1  0  0  0  0
  6  8  1  0  0  0  0
  7 33  1  0  0  0  0
  8  9  1  0  0  0  0
  8 22  1  0  0  0  0
  8 34  1  0  0  0  0
  9 10  2  0  0  0  0
  9 11  1  0  0  0  0
 11 12  1  0  0  0  0
 11 35  1  0  0  0  0
 12 13  1  0  0  0  0
 12 21  2  0  0  0  0
 13 14  2  0  0  0  0
 13 36  1  0  0  0  0
 14 15  1  0  0  0  0
 15 16  2  0  0  0  0
 15 37  1  0  0  0  0
 16 17  1  0  0  0  0
 16 21  1  0  0  0  0
 17 18  2  0  0  0  0
 17 38  1  0  0  0  0
 18 19  1  0  0  0  0
 18 39  1  0  0  0  0
 19 20  2  0  0  0  0
 19 40  1  0  0  0  0
 20 21  1  0  0  0  0
 20 41  1  0  0  0  0
 22 23  1  0  0  0  0
 22 42  1  0  0  0  0
 22 43  1  0  0  0  0
 23 24  1  0  0  0  0
 23 30  1  0  0  0  0
 24 25  2  0  0  0  0
 24 26  2  0  0  0  0
 24 27  1  0  0  0  0
 27 28  1  0  0  0  0
 27 29  1  0  0  0  0
 27 44  1  0  0  0  0
 28 29  1  0  0  0  0
 28 45  1  0  0  0  0
 28 46  1  0  0  0  0
 29 47  1  0  0  0  0
 29 48  1  0  0  0  0
 30 49  1  0  0  0  0
 30 50  1  0  0  0  0
M  END
$$$$
