
 OpenBabel07202414193D

 40 43  0  0  1  0  0  0  0  0999 V2000
   -1.6636    0.9146    1.3264 O   0  0  0  0  0  0  0  0  0  0  0  0
   -0.7575    0.5363    0.6018 C   0  0  0  0  0  0  0  0  0  0  0  0
   -0.5374   -0.8945    0.1955 C   0  0  0  0  0  0  0  0  0  0  0  0
    0.9363   -0.9227   -0.1838 C   0  0  1  0  0  0  0  0  0  0  0  0
    1.2939   -1.7777   -1.3999 C   0  0  0  0  0  0  0  0  0  0  0  0
    0.9445   -3.2437   -1.3237 C   0  0  0  0  0  0  0  0  0  0  0  0
    0.0730   -3.8027   -2.2713 C   0  0  0  0  0  0  0  0  0  0  0  0
   -0.1735   -5.1765   -2.2921 C   0  0  0  0  0  0  0  0  0  0  0  0
    0.4463   -6.0093   -1.3648 C   0  0  0  0  0  0  0  0  0  0  0  0
    1.3055   -5.4641   -0.4095 C   0  0  0  0  0  0  0  0  0  0  0  0
    1.5538   -4.0902   -0.3881 C   0  0  0  0  0  0  0  0  0  0  0  0
    1.2291    0.5262   -0.5069 C   0  0  0  0  0  0  0  0  0  0  0  0
    2.2642    0.9192   -1.0291 O   0  0  0  0  0  0  0  0  0  0  0  0
    0.1811    1.2934   -0.0602 N   0  0  0  0  0  0  0  0  0  0  0  0
    0.0912    2.6912   -0.2245 C   0  0  0  0  0  0  0  0  0  0  0  0
   -0.0404    3.5216    0.8871 C   0  0  0  0  0  0  0  0  0  0  0  0
   -0.1137    4.8703    0.8265 N   0  0  0  0  0  0  0  0  0  0  0  0
   -0.1727    5.4131   -0.4094 C   0  0  0  0  0  0  0  0  0  0  0  0
   -0.1883    4.6796   -1.5960 C   0  0  0  0  0  0  0  0  0  0  0  0
   -0.4498    5.2986   -2.8329 C   0  0  0  0  0  0  0  0  0  0  0  0
   -0.5139    4.5485   -4.0046 C   0  0  0  0  0  0  0  0  0  0  0  0
   -0.2460    3.1873   -3.9637 C   0  0  0  0  0  0  0  0  0  0  0  0
    0.0220    2.5651   -2.7413 C   0  0  0  0  0  0  0  0  0  0  0  0
    0.0100    3.2821   -1.5177 C   0  0  0  0  0  0  0  0  0  0  0  0
   -1.1938   -1.1033   -0.6573 H   0  0  0  0  0  0  0  0  0  0  0  0
   -0.7690   -1.5790    1.0165 H   0  0  0  0  0  0  0  0  0  0  0  0
    1.5357   -1.2014    0.6918 H   0  0  0  0  0  0  0  0  0  0  0  0
    2.3760   -1.7116   -1.5781 H   0  0  0  0  0  0  0  0  0  0  0  0
    0.8344   -1.3403   -2.2956 H   0  0  0  0  0  0  0  0  0  0  0  0
   -0.3997   -3.1766   -3.0248 H   0  0  0  0  0  0  0  0  0  0  0  0
   -0.8333   -5.5989   -3.0461 H   0  0  0  0  0  0  0  0  0  0  0  0
    0.2707   -7.0816   -1.3948 H   0  0  0  0  0  0  0  0  0  0  0  0
    1.8003   -6.1210    0.3026 H   0  0  0  0  0  0  0  0  0  0  0  0
    2.2556   -3.6943    0.3426 H   0  0  0  0  0  0  0  0  0  0  0  0
   -0.0697    3.1194    1.8960 H   0  0  0  0  0  0  0  0  0  0  0  0
   -0.2363    6.4993   -0.4197 H   0  0  0  0  0  0  0  0  0  0  0  0
   -0.6592    6.3656   -2.8820 H   0  0  0  0  0  0  0  0  0  0  0  0
   -0.7772    5.0247   -4.9455 H   0  0  0  0  0  0  0  0  0  0  0  0
   -0.2659    2.5999   -4.8782 H   0  0  0  0  0  0  0  0  0  0  0  0
    0.2162    1.4971   -2.7620 H   0  0  0  0  0  0  0  0  0  0  0  0
  1  2  2  0  0  0  0
  2  3  1  0  0  0  0
  2 14  1  0  0  0  0
  3  4  1  0  0  0  0
  3 25  1  0  0  0  0
  3 26  1  0  0  0  0
  4  5  1  0  0  0  0
  4 12  1  0  0  0  0
  4 27  1  1  0  0  0
  5  6  1  0  0  0  0
  5 28  1  0  0  0  0
  5 29  1  0  0  0  0
  6  7  1  0  0  0  0
  6 11  2  0  0  0  0
  7  8  2  0  0  0  0
  7 30  1  0  0  0  0
  8  9  1  0  0  0  0
  8 31  1  0  0  0  0
  9 10  2  0  0  0  0
  9 32  1  0  0  0  0
 10 11  1  0  0  0  0
 10 33  1  0  0  0  0
 11 34  1  0  0  0  0
 12 13  2  0  0  0  0
 12 14  1  0  0  0  0
 14 15  1  0  0  0  0
 15 16  1  0  0  0  0
 15 24  2  0  0  0  0
 16 17  2  0  0  0  0
 16 35  1  0  0  0  0
 17 18  1  0  0  0  0
 18 19  2  0  0  0  0
 18 36  1  0  0  0  0
 19 20  1  0  0  0  0
 19 24  1  0  0  0  0
 20 21  2  0  0  0  0
 20 37  1  0  0  0  0
 21 22  1  0  0  0  0
 21 38  1  0  0  0  0
 22 23  2  0  0  0  0
 22 39  1  0  0  0  0
 23 24  1  0  0  0  0
 23 40  1  0  0  0  0
M  END
$$$$
