
 OpenBabel07202414143D

 56 59  0  0  1  0  0  0  0  0999 V2000
    3.4110   -3.1086   -1.1271 C   0  0  0  0  0  0  0  0  0  0  0  0
    3.6566   -1.7123   -0.8454 N   0  0  0  0  0  0  0  0  0  0  0  0
    4.6570   -1.0552   -1.5306 C   0  0  0  0  0  0  0  0  0  0  0  0
    5.3593   -1.6636   -2.3351 O   0  0  0  0  0  0  0  0  0  0  0  0
    4.7862    0.4562   -1.2460 C   0  0  0  0  0  0  0  0  0  0  0  0
    5.0933    1.2427   -2.4743 N   0  0  0  0  0  0  0  0  0  0  0  0
    6.4499    0.9459   -3.0119 C   0  0  0  0  0  0  0  0  0  0  0  0
    6.6221    1.5832   -4.4013 C   0  0  3  0  0  0  0  0  0  0  0  0
    5.8675    0.8471   -5.5358 C   0  0  0  0  0  0  0  0  0  0  0  0
    6.3111    0.8882   -6.6840 O   0  0  0  0  0  0  0  0  0  0  0  0
    4.6888    0.2188   -5.1667 N   0  0  0  0  0  0  0  0  0  0  0  0
    3.7408   -0.4376   -6.0041 C   0  0  0  0  0  0  0  0  0  0  0  0
    3.8957   -0.5294   -7.3858 C   0  0  0  0  0  0  0  0  0  0  0  0
    2.9166   -0.9162   -8.2394 N   0  0  0  0  0  0  0  0  0  0  0  0
    1.7550   -1.3215   -7.6926 C   0  0  0  0  0  0  0  0  0  0  0  0
    1.5471   -1.4866   -6.3254 C   0  0  0  0  0  0  0  0  0  0  0  0
    0.3886   -2.1264   -5.8304 C   0  0  0  0  0  0  0  0  0  0  0  0
    0.2223   -2.2992   -4.4699 C   0  0  0  0  0  0  0  0  0  0  0  0
   -1.1896   -3.1819   -3.8329 S   0  0  0  0  0  0  0  0  0  0  0  0
   -1.0669   -4.8188   -4.4884 C   0  0  0  0  0  0  0  0  0  0  0  0
   -1.0433   -3.2756   -2.3916 O   0  0  0  0  0  0  0  0  0  0  0  0
   -2.3556   -2.5499   -4.4257 O   0  0  0  0  0  0  0  0  0  0  0  0
    1.1394   -1.7686   -3.5770 C   0  0  0  0  0  0  0  0  0  0  0  0
    2.2774   -1.1236   -4.0729 C   0  0  0  0  0  0  0  0  0  0  0  0
    2.5475   -0.9991   -5.4540 C   0  0  0  0  0  0  0  0  0  0  0  0
    6.3037    3.0659   -4.3524 C   0  0  0  0  0  0  0  0  0  0  0  0
    6.8246    3.9312   -5.3288 C   0  0  0  0  0  0  0  0  0  0  0  0
    6.5520    5.2960   -5.2727 C   0  0  0  0  0  0  0  0  0  0  0  0
    7.2161    6.3524   -6.4577 Cl  0  0  0  0  0  0  0  0  0  0  0  0
    5.7573    5.8130   -4.2529 C   0  0  0  0  0  0  0  0  0  0  0  0
    5.2458    4.9622   -3.2697 C   0  0  0  0  0  0  0  0  0  0  0  0
    5.5109    3.5825   -3.3077 C   0  0  0  0  0  0  0  0  0  0  0  0
    5.0382    2.6936   -2.1681 C   0  0  0  0  0  0  0  0  0  0  0  0
    2.6162   -3.4748   -0.4746 H   0  0  0  0  0  0  0  0  0  0  0  0
    4.3300   -3.6788   -0.9706 H   0  0  0  0  0  0  0  0  0  0  0  0
    3.1146   -3.2245   -2.1720 H   0  0  0  0  0  0  0  0  0  0  0  0
    3.0404   -1.2171   -0.2140 H   0  0  0  0  0  0  0  0  0  0  0  0
    5.5398    0.6041   -0.4673 H   0  0  0  0  0  0  0  0  0  0  0  0
    3.8175    0.8034   -0.8561 H   0  0  0  0  0  0  0  0  0  0  0  0
    6.6386   -0.1186   -3.1332 H   0  0  0  0  0  0  0  0  0  0  0  0
    7.2161    1.3168   -2.3192 H   0  0  0  0  0  0  0  0  0  0  0  0
    7.6899    1.4760   -4.6422 H   0  0  0  0  0  0  0  0  0  0  0  0
    4.4323    0.3459   -4.1917 H   0  0  0  0  0  0  0  0  0  0  0  0
    4.8237   -0.2768   -7.8863 H   0  0  0  0  0  0  0  0  0  0  0  0
    0.9662   -1.5217   -8.4123 H   0  0  0  0  0  0  0  0  0  0  0  0
   -0.3615   -2.5047   -6.5272 H   0  0  0  0  0  0  0  0  0  0  0  0
   -0.1531   -5.2904   -4.1128 H   0  0  0  0  0  0  0  0  0  0  0  0
   -1.0669   -4.7822   -5.5796 H   0  0  0  0  0  0  0  0  0  0  0  0
   -1.9383   -5.3775   -4.1478 H   0  0  0  0  0  0  0  0  0  0  0  0
    0.9990   -1.8558   -2.5008 H   0  0  0  0  0  0  0  0  0  0  0  0
    2.9819   -0.7444   -3.3497 H   0  0  0  0  0  0  0  0  0  0  0  0
    7.4528    3.5380   -6.1267 H   0  0  0  0  0  0  0  0  0  0  0  0
    5.5439    6.8784   -4.2126 H   0  0  0  0  0  0  0  0  0  0  0  0
    4.6494    5.3878   -2.4653 H   0  0  0  0  0  0  0  0  0  0  0  0
    4.0058    2.9686   -1.9190 H   0  0  0  0  0  0  0  0  0  0  0  0
    5.6683    2.9230   -1.2945 H   0  0  0  0  0  0  0  0  0  0  0  0
  1  2  1  0  0  0  0
  1 34  1  0  0  0  0
  1 35  1  0  0  0  0
  1 36  1  0  0  0  0
  2  3  1  0  0  0  0
  2 37  1  0  0  0  0
  3  4  2  0  0  0  0
  3  5  1  0  0  0  0
  5  6  1  0  0  0  0
  5 38  1  0  0  0  0
  5 39  1  0  0  0  0
  6  7  1  0  0  0  0
  6 33  1  0  0  0  0
  7  8  1  0  0  0  0
  7 40  1  0  0  0  0
  7 41  1  0  0  0  0
  8  9  1  0  0  0  0
  8 26  1  0  0  0  0
  8 42  1  0  0  0  0
  9 10  2  0  0  0  0
  9 11  1  0  0  0  0
 11 12  1  0  0  0  0
 11 43  1  0  0  0  0
 12 13  1  0  0  0  0
 12 25  2  0  0  0  0
 13 14  2  0  0  0  0
 13 44  1  0  0  0  0
 14 15  1  0  0  0  0
 15 16  2  0  0  0  0
 15 45  1  0  0  0  0
 16 17  1  0  0  0  0
 16 25  1  0  0  0  0
 17 18  2  0  0  0  0
 17 46  1  0  0  0  0
 18 19  1  0  0  0  0
 18 23  1  0  0  0  0
 19 20  1  0  0  0  0
 19 21  2  0  0  0  0
 19 22  2  0  0  0  0
 20 47  1  0  0  0  0
 20 48  1  0  0  0  0
 20 49  1  0  0  0  0
 23 24  2  0  0  0  0
 23 50  1  0  0  0  0
 24 25  1  0  0  0  0
 24 51  1  0  0  0  0
 26 27  1  0  0  0  0
 26 32  2  0  0  0  0
 27 28  2  0  0  0  0
 27 52  1  0  0  0  0
 28 29  1  0  0  0  0
 28 30  1  0  0  0  0
 30 31  2  0  0  0  0
 30 53  1  0  0  0  0
 31 32  1  0  0  0  0
 31 54  1  0  0  0  0
 32 33  1  0  0  0  0
 33 55  1  0  0  0  0
 33 56  1  0  0  0  0
M  END
$$$$
