
 OpenBabel07202414153D

 53 55  0  0  1  0  0  0  0  0999 V2000
    3.4037   -0.7191    1.2370 C   0  0  0  0  0  0  0  0  0  0  0  0
    2.7755    0.0786    0.2412 O   0  0  0  0  0  0  0  0  0  0  0  0
    3.4569    0.2517   -0.9323 C   0  0  0  0  0  0  0  0  0  0  0  0
    4.7154   -0.2733   -1.2361 C   0  0  0  0  0  0  0  0  0  0  0  0
    5.3194   -0.0019   -2.4702 C   0  0  0  0  0  0  0  0  0  0  0  0
    4.6560    0.7689   -3.4264 C   0  0  0  0  0  0  0  0  0  0  0  0
    3.3895    1.2734   -3.1352 C   0  0  0  0  0  0  0  0  0  0  0  0
    2.7981    1.0275   -1.8896 C   0  0  0  0  0  0  0  0  0  0  0  0
    5.2745    1.0091   -4.6816 N   0  0  0  0  0  0  0  0  0  0  0  0
    4.6171    0.5996   -5.8469 C   0  0  0  0  0  0  0  0  0  0  0  0
    3.5373    0.0130   -5.7940 O   0  0  0  0  0  0  0  0  0  0  0  0
    5.4104    0.8081   -7.2006 C   0  0  3  0  0  0  0  0  0  0  0  0
    5.6029   -0.5555   -7.8491 C   0  0  0  0  0  0  0  0  0  0  0  0
    4.6777   -1.1049   -8.7378 C   0  0  0  0  0  0  0  0  0  0  0  0
    4.8866   -2.3746   -9.2710 C   0  0  0  0  0  0  0  0  0  0  0  0
    6.0239   -3.0623   -8.8902 C   0  0  0  0  0  0  0  0  0  0  0  0
    6.9412   -2.5776   -8.0264 N   0  0  0  0  0  0  0  0  0  0  0  0
    6.7014   -1.3481   -7.5144 C   0  0  0  0  0  0  0  0  0  0  0  0
    4.9167    1.8778   -8.1356 N   0  0  0  0  0  0  0  0  0  0  0  0
    5.8847    2.5573   -8.9553 C   0  0  0  0  0  0  0  0  0  0  0  0
    5.8650    3.9564   -9.0491 C   0  0  0  0  0  0  0  0  0  0  0  0
    6.7280    4.6367   -9.9206 C   0  0  0  0  0  0  0  0  0  0  0  0
    7.6460    3.9352  -10.7120 C   0  0  0  0  0  0  0  0  0  0  0  0
    7.6847    2.5383  -10.6043 C   0  0  0  0  0  0  0  0  0  0  0  0
    6.8191    1.8582   -9.7315 C   0  0  0  0  0  0  0  0  0  0  0  0
    8.5737    4.6540  -11.6658 C   0  0  0  0  0  0  0  0  0  0  0  0
    8.4071    6.0064  -11.6713 F   0  0  0  0  0  0  0  0  0  0  0  0
    9.8866    4.4420  -11.3732 F   0  0  0  0  0  0  0  0  0  0  0  0
    8.4091    4.2545  -12.9576 F   0  0  0  0  0  0  0  0  0  0  0  0
    3.5407    2.0164   -8.3503 C   0  0  0  0  0  0  0  0  0  0  0  0
    2.6828    1.4038   -7.7239 O   0  0  0  0  0  0  0  0  0  0  0  0
    3.0543    2.9287   -9.4257 C   0  0  0  0  0  0  0  0  0  0  0  0
    1.8328    3.4707   -9.3104 C   0  0  0  0  0  0  0  0  0  0  0  0
    2.7184   -0.8031    2.0866 H   0  0  0  0  0  0  0  0  0  0  0  0
    4.3236   -0.2452    1.5964 H   0  0  0  0  0  0  0  0  0  0  0  0
    3.5989   -1.7327    0.8708 H   0  0  0  0  0  0  0  0  0  0  0  0
    5.2396   -0.9207   -0.5417 H   0  0  0  0  0  0  0  0  0  0  0  0
    6.2794   -0.4627   -2.6942 H   0  0  0  0  0  0  0  0  0  0  0  0
    2.8438    1.8638   -3.8706 H   0  0  0  0  0  0  0  0  0  0  0  0
    1.8184    1.4449   -1.6668 H   0  0  0  0  0  0  0  0  0  0  0  0
    6.2829    0.9206   -4.6981 H   0  0  0  0  0  0  0  0  0  0  0  0
    6.4074    1.1614   -6.8967 H   0  0  0  0  0  0  0  0  0  0  0  0
    3.7697   -0.5719   -9.0044 H   0  0  0  0  0  0  0  0  0  0  0  0
    4.1723   -2.8073   -9.9563 H   0  0  0  0  0  0  0  0  0  0  0  0
    6.2232   -4.0581   -9.2748 H   0  0  0  0  0  0  0  0  0  0  0  0
    7.4523   -1.0193   -6.8003 H   0  0  0  0  0  0  0  0  0  0  0  0
    5.1674    4.5380   -8.4501 H   0  0  0  0  0  0  0  0  0  0  0  0
    6.6690    5.7231   -9.9832 H   0  0  0  0  0  0  0  0  0  0  0  0
    8.3777    1.9649  -11.2210 H   0  0  0  0  0  0  0  0  0  0  0  0
    6.8543    0.7729   -9.7447 H   0  0  0  0  0  0  0  0  0  0  0  0
    3.6619    3.1056  -10.3018 H   0  0  0  0  0  0  0  0  0  0  0  0
    1.2035    3.2624   -8.4462 H   0  0  0  0  0  0  0  0  0  0  0  0
    1.4279    4.1190  -10.0765 H   0  0  0  0  0  0  0  0  0  0  0  0
  1  2  1  0  0  0  0
  1 34  1  0  0  0  0
  1 35  1  0  0  0  0
  1 36  1  0  0  0  0
  2  3  1  0  0  0  0
  3  4  1  0  0  0  0
  3  8  2  0  0  0  0
  4  5  2  0  0  0  0
  4 37  1  0  0  0  0
  5  6  1  0  0  0  0
  5 38  1  0  0  0  0
  6  7  2  0  0  0  0
  6  9  1  0  0  0  0
  7  8  1  0  0  0  0
  7 39  1  0  0  0  0
  8 40  1  0  0  0  0
  9 10  1  0  0  0  0
  9 41  1  0  0  0  0
 10 11  2  0  0  0  0
 10 12  1  0  0  0  0
 12 13  1  0  0  0  0
 12 19  1  0  0  0  0
 12 42  1  0  0  0  0
 13 14  1  0  0  0  0
 13 18  2  0  0  0  0
 14 15  2  0  0  0  0
 14 43  1  0  0  0  0
 15 16  1  0  0  0  0
 15 44  1  0  0  0  0
 16 17  2  0  0  0  0
 16 45  1  0  0  0  0
 17 18  1  0  0  0  0
 18 46  1  0  0  0  0
 19 20  1  0  0  0  0
 19 30  1  0  0  0  0
 20 21  1  0  0  0  0
 20 25  2  0  0  0  0
 21 22  2  0  0  0  0
 21 47  1  0  0  0  0
 22 23  1  0  0  0  0
 22 48  1  0  0  0  0
 23 24  2  0  0  0  0
 23 26  1  0  0  0  0
 24 25  1  0  0  0  0
 24 49  1  0  0  0  0
 25 50  1  0  0  0  0
 26 27  1  0  0  0  0
 26 28  1  0  0  0  0
 26 29  1  0  0  0  0
 30 31  2  0  0  0  0
 30 32  1  0  0  0  0
 32 33  2  0  0  0  0
 32 51  1  0  0  0  0
 33 52  1  0  0  0  0
 33 53  1  0  0  0  0
M  END
$$$$
