
 OpenBabel07202414153D

 64 68  0  0  1  0  0  0  0  0999 V2000
   14.4920   -4.3940   -4.5132 C   0  0  0  0  0  0  0  0  0  0  0  0
   13.1663   -4.6062   -4.0438 O   0  0  0  0  0  0  0  0  0  0  0  0
   12.1631   -3.9268   -4.6789 C   0  0  0  0  0  0  0  0  0  0  0  0
   12.3204   -2.9910   -5.6995 C   0  0  0  0  0  0  0  0  0  0  0  0
   11.1988   -2.3612   -6.2600 C   0  0  0  0  0  0  0  0  0  0  0  0
    9.9030   -2.6585   -5.8124 C   0  0  0  0  0  0  0  0  0  0  0  0
    8.7074   -1.9198   -6.3601 C   0  0  0  0  0  0  0  0  0  0  0  0
    7.7309   -2.7783   -7.0017 N   0  0  0  0  0  0  0  0  0  0  0  0
    6.4370   -2.3320   -7.1626 C   0  0  0  0  0  0  0  0  0  0  0  0
    6.0485   -1.2670   -6.6813 O   0  0  0  0  0  0  0  0  0  0  0  0
    5.4514   -3.2863   -7.8385 C   0  0  0  0  0  0  0  0  0  0  0  0
    5.9617   -4.0164   -9.0267 N   0  0  0  0  0  0  0  0  0  0  0  0
    6.2944   -3.1179  -10.1726 C   0  0  0  0  0  0  0  0  0  0  0  0
    5.8314   -3.5295  -11.6195 C   0  0  2  0  0  0  0  0  0  0  0  0
    4.4972   -2.8551  -12.0307 C   0  0  0  0  0  0  0  0  0  0  0  0
    3.8429   -2.1821  -11.2395 O   0  0  0  0  0  0  0  0  0  0  0  0
    4.1635   -3.0603  -13.3681 N   0  0  0  0  0  0  0  0  0  0  0  0
    3.0724   -2.5077  -14.1069 C   0  0  0  0  0  0  0  0  0  0  0  0
    2.2080   -1.5478  -13.5791 C   0  0  0  0  0  0  0  0  0  0  0  0
    1.2222   -0.9303  -14.2766 N   0  0  0  0  0  0  0  0  0  0  0  0
    1.0442   -1.3220  -15.5537 C   0  0  0  0  0  0  0  0  0  0  0  0
    1.7746   -2.3305  -16.1767 C   0  0  0  0  0  0  0  0  0  0  0  0
    1.4462   -2.7531  -17.4789 C   0  0  0  0  0  0  0  0  0  0  0  0
    2.1671   -3.7665  -18.1005 C   0  0  0  0  0  0  0  0  0  0  0  0
    3.2455   -4.3395  -17.4422 C   0  0  0  0  0  0  0  0  0  0  0  0
    3.5783   -3.9271  -16.1463 C   0  0  0  0  0  0  0  0  0  0  0  0
    2.8402   -2.9282  -15.4563 C   0  0  0  0  0  0  0  0  0  0  0  0
    5.7950   -5.0446  -11.7464 C   0  0  0  0  0  0  0  0  0  0  0  0
    6.2163   -5.7359  -12.8866 C   0  0  0  0  0  0  0  0  0  0  0  0
    6.2001   -7.1367  -12.9005 C   0  0  0  0  0  0  0  0  0  0  0  0
    6.7140   -7.9804  -14.3064 Cl  0  0  0  0  0  0  0  0  0  0  0  0
    5.7814   -7.8534  -11.7788 C   0  0  0  0  0  0  0  0  0  0  0  0
    5.3589   -7.1720  -10.6404 C   0  0  0  0  0  0  0  0  0  0  0  0
    5.3619   -5.7720  -10.6227 C   0  0  0  0  0  0  0  0  0  0  0  0
    4.9213   -4.9889   -9.4126 C   0  0  0  0  0  0  0  0  0  0  0  0
    9.7559   -3.5935   -4.7798 C   0  0  0  0  0  0  0  0  0  0  0  0
   10.8764   -4.2198   -4.2220 C   0  0  0  0  0  0  0  0  0  0  0  0
   15.1608   -5.0309   -3.9250 H   0  0  0  0  0  0  0  0  0  0  0  0
   14.8048   -3.3559   -4.3613 H   0  0  0  0  0  0  0  0  0  0  0  0
   14.5924   -4.6884   -5.5630 H   0  0  0  0  0  0  0  0  0  0  0  0
   13.3008   -2.7165   -6.0744 H   0  0  0  0  0  0  0  0  0  0  0  0
   11.3523   -1.6172   -7.0391 H   0  0  0  0  0  0  0  0  0  0  0  0
    9.0161   -1.1733   -7.1008 H   0  0  0  0  0  0  0  0  0  0  0  0
    8.2327   -1.3679   -5.5379 H   0  0  0  0  0  0  0  0  0  0  0  0
    8.0367   -3.5394   -7.5980 H   0  0  0  0  0  0  0  0  0  0  0  0
    4.5482   -2.7189   -8.0954 H   0  0  0  0  0  0  0  0  0  0  0  0
    5.1814   -4.0136   -7.0608 H   0  0  0  0  0  0  0  0  0  0  0  0
    7.3957   -3.1346  -10.2018 H   0  0  0  0  0  0  0  0  0  0  0  0
    6.0286   -2.0760   -9.9710 H   0  0  0  0  0  0  0  0  0  0  0  0
    6.5907   -3.1415  -12.3125 H   0  0  0  0  0  0  0  0  0  0  0  0
    4.7595   -3.6885  -13.8771 H   0  0  0  0  0  0  0  0  0  0  0  0
    2.2662   -1.2119  -12.5497 H   0  0  0  0  0  0  0  0  0  0  0  0
    0.2604   -0.7843  -16.0822 H   0  0  0  0  0  0  0  0  0  0  0  0
    0.6024   -2.3114  -18.0067 H   0  0  0  0  0  0  0  0  0  0  0  0
    1.8839   -4.1116  -19.0926 H   0  0  0  0  0  0  0  0  0  0  0  0
    3.8224   -5.1231  -17.9275 H   0  0  0  0  0  0  0  0  0  0  0  0
    4.4201   -4.4299  -15.6819 H   0  0  0  0  0  0  0  0  0  0  0  0
    6.5687   -5.2054  -13.7650 H   0  0  0  0  0  0  0  0  0  0  0  0
    5.7990   -8.9401  -11.7801 H   0  0  0  0  0  0  0  0  0  0  0  0
    5.0450   -7.7342   -9.7623 H   0  0  0  0  0  0  0  0  0  0  0  0
    4.7260   -5.6801   -8.5845 H   0  0  0  0  0  0  0  0  0  0  0  0
    3.9676   -4.4925   -9.6440 H   0  0  0  0  0  0  0  0  0  0  0  0
    8.7681   -3.8247   -4.3868 H   0  0  0  0  0  0  0  0  0  0  0  0
   10.7454   -4.9370   -3.4149 H   0  0  0  0  0  0  0  0  0  0  0  0
  1  2  1  0  0  0  0
  1 38  1  0  0  0  0
  1 39  1  0  0  0  0
  1 40  1  0  0  0  0
  2  3  1  0  0  0  0
  3  4  1  0  0  0  0
  3 37  2  0  0  0  0
  4  5  2  0  0  0  0
  4 41  1  0  0  0  0
  5  6  1  0  0  0  0
  5 42  1  0  0  0  0
  6  7  1  0  0  0  0
  6 36  2  0  0  0  0
  7  8  1  0  0  0  0
  7 43  1  0  0  0  0
  7 44  1  0  0  0  0
  8  9  1  0  0  0  0
  8 45  1  0  0  0  0
  9 10  2  0  0  0  0
  9 11  1  0  0  0  0
 11 12  1  0  0  0  0
 11 46  1  0  0  0  0
 11 47  1  0  0  0  0
 12 13  1  0  0  0  0
 12 35  1  0  0  0  0
 13 14  1  0  0  0  0
 13 48  1  0  0  0  0
 13 49  1  0  0  0  0
 14 28  1  0  0  0  0
 14 15  1  0  0  0  0
 14 50  1  6  0  0  0
 15 16  2  0  0  0  0
 15 17  1  0  0  0  0
 17 18  1  0  0  0  0
 17 51  1  0  0  0  0
 18 19  1  0  0  0  0
 18 27  2  0  0  0  0
 19 20  2  0  0  0  0
 19 52  1  0  0  0  0
 20 21  1  0  0  0  0
 21 22  2  0  0  0  0
 21 53  1  0  0  0  0
 22 23  1  0  0  0  0
 22 27  1  0  0  0  0
 23 24  2  0  0  0  0
 23 54  1  0  0  0  0
 24 25  1  0  0  0  0
 24 55  1  0  0  0  0
 25 26  2  0  0  0  0
 25 56  1  0  0  0  0
 26 27  1  0  0  0  0
 26 57  1  0  0  0  0
 28 29  1  0  0  0  0
 28 34  2  0  0  0  0
 29 30  2  0  0  0  0
 29 58  1  0  0  0  0
 30 31  1  0  0  0  0
 30 32  1  0  0  0  0
 32 33  2  0  0  0  0
 32 59  1  0  0  0  0
 33 34  1  0  0  0  0
 33 60  1  0  0  0  0
 34 35  1  0  0  0  0
 35 61  1  0  0  0  0
 35 62  1  0  0  0  0
 36 37  1  0  0  0  0
 36 63  1  0  0  0  0
 37 64  1  0  0  0  0
M  END
$$$$
