
 OpenBabel07202414163D

 29 30  0  0  0  0  0  0  0  0999 V2000
    2.4800    2.0763    1.0684 C   0  0  0  0  0  0  0  0  0  0  0  0
    1.3697    1.1678    0.7083 C   0  0  0  0  0  0  0  0  0  0  0  0
    0.0668    1.3923    0.3249 C   0  0  0  0  0  0  0  0  0  0  0  0
   -0.5201    0.1078    0.2736 C   0  0  0  0  0  0  0  0  0  0  0  0
    0.3527   -0.8608    0.5681 N   0  0  0  0  0  0  0  0  0  0  0  0
    1.4809   -0.1919    0.8524 N   0  0  0  0  0  0  0  0  0  0  0  0
   -0.4817    2.6383    0.0812 N   0  0  0  0  0  0  0  0  0  0  0  0
   -1.8106    2.9215    0.3360 C   0  0  0  0  0  0  0  0  0  0  0  0
   -2.6014    2.1613    0.8903 O   0  0  0  0  0  0  0  0  0  0  0  0
   -2.2388    4.3011   -0.1275 C   0  0  0  0  0  0  0  0  0  0  0  0
   -1.7728    5.4440    0.7440 C   0  0  0  0  0  0  0  0  0  0  0  0
   -2.1079    5.5001    2.1053 C   0  0  0  0  0  0  0  0  0  0  0  0
   -1.7594    6.6099    2.8824 C   0  0  0  0  0  0  0  0  0  0  0  0
   -1.0650    7.6741    2.3049 C   0  0  0  0  0  0  0  0  0  0  0  0
   -0.7216    7.6231    0.9585 C   0  0  0  0  0  0  0  0  0  0  0  0
   -1.0709    6.5217    0.1761 C   0  0  0  0  0  0  0  0  0  0  0  0
    0.1262    8.9375    0.2395 Cl  0  0  0  0  0  0  0  0  0  0  0  0
    2.2218    3.1217    0.8722 H   0  0  0  0  0  0  0  0  0  0  0  0
    3.3843    1.8367    0.5009 H   0  0  0  0  0  0  0  0  0  0  0  0
    2.7042    1.9865    2.1361 H   0  0  0  0  0  0  0  0  0  0  0  0
   -1.5350   -0.1626    0.0081 H   0  0  0  0  0  0  0  0  0  0  0  0
    2.2815   -0.7237    1.1744 H   0  0  0  0  0  0  0  0  0  0  0  0
    0.1576    3.4115   -0.0461 H   0  0  0  0  0  0  0  0  0  0  0  0
   -3.3347    4.3187   -0.1756 H   0  0  0  0  0  0  0  0  0  0  0  0
   -1.8877    4.4324   -1.1584 H   0  0  0  0  0  0  0  0  0  0  0  0
   -2.6735    4.6896    2.5654 H   0  0  0  0  0  0  0  0  0  0  0  0
   -2.0394    6.6503    3.9306 H   0  0  0  0  0  0  0  0  0  0  0  0
   -0.8058    8.5401    2.9084 H   0  0  0  0  0  0  0  0  0  0  0  0
   -0.8200    6.5157   -0.8806 H   0  0  0  0  0  0  0  0  0  0  0  0
  1  2  1  0  0  0  0
  1 18  1  0  0  0  0
  1 19  1  0  0  0  0
  1 20  1  0  0  0  0
  2  3  2  0  0  0  0
  2  6  1  0  0  0  0
  3  4  1  0  0  0  0
  3  7  1  0  0  0  0
  4  5  2  0  0  0  0
  4 21  1  0  0  0  0
  5  6  1  0  0  0  0
  6 22  1  0  0  0  0
  7  8  1  0  0  0  0
  7 23  1  0  0  0  0
  8  9  2  0  0  0  0
  8 10  1  0  0  0  0
 10 11  1  0  0  0  0
 10 24  1  0  0  0  0
 10 25  1  0  0  0  0
 11 12  1  0  0  0  0
 11 16  2  0  0  0  0
 12 13  2  0  0  0  0
 12 26  1  0  0  0  0
 13 14  1  0  0  0  0
 13 27  1  0  0  0  0
 14 15  2  0  0  0  0
 14 28  1  0  0  0  0
 15 16  1  0  0  0  0
 15 17  1  0  0  0  0
 16 29  1  0  0  0  0
M  END
$$$$
