
 OpenBabel07202414183D

 54 58  0  0  1  0  0  0  0  0999 V2000
    2.0866   -1.0473    0.7477 F   0  0  0  0  0  0  0  0  0  0  0  0
    3.3954   -0.8140    0.5906 C   0  0  0  0  0  0  0  0  0  0  0  0
    3.9045    0.4525    0.8340 C   0  0  0  0  0  0  0  0  0  0  0  0
    5.2722    0.7122    0.6413 C   0  0  0  0  0  0  0  0  0  0  0  0
    6.1663   -0.2841    0.1766 C   0  0  0  0  0  0  0  0  0  0  0  0
    7.5437   -0.0611   -0.1513 C   0  0  0  0  0  0  0  0  0  0  0  0
    8.2049    1.2016    0.0912 N   0  0  0  0  0  0  0  0  0  0  0  0
    9.1321    1.8328   -0.7700 C   0  0  0  0  0  0  0  0  0  0  0  0
    9.3161    1.4785   -1.9318 O   0  0  0  0  0  0  0  0  0  0  0  0
   10.0115    2.9577   -0.0915 C   0  0  3  0  0  0  0  0  0  0  0  0
   10.6915    4.0713   -1.0503 C   0  0  0  0  0  0  0  0  0  0  0  0
   11.5927    5.1377   -0.2677 N   0  0  0  0  0  0  0  0  0  0  0  0
   11.2086    6.7984   -0.3051 S   0  0  0  0  0  0  0  0  0  0  0  0
    9.8254    6.8527   -0.7170 O   0  0  0  0  0  0  0  0  0  0  0  0
   11.6038    7.3394    0.9850 O   0  0  0  0  0  0  0  0  0  0  0  0
   12.2865    7.6790   -1.5361 C   0  0  0  0  0  0  0  0  0  0  0  0
   11.9024    9.1678   -1.3310 C   0  0  0  0  0  0  0  0  0  0  0  0
   10.5311    9.4999   -1.5235 C   0  0  0  0  0  0  0  0  0  0  0  0
    9.4393    9.8078   -1.7476 N   0  0  0  0  0  0  0  0  0  0  0  0
   12.7310    9.9457   -0.3155 C   0  0  0  0  0  0  0  0  0  0  0  0
   12.7817   10.3817   -1.7408 C   0  0  0  0  0  0  0  0  0  0  0  0
   11.7934    4.6796    1.1345 C   0  0  0  0  0  0  0  0  0  0  0  0
   12.1896    3.2353    1.0851 C   0  0  0  0  0  0  0  0  0  0  0  0
   13.5279    2.8596    1.1823 C   0  0  0  0  0  0  0  0  0  0  0  0
   13.8945    1.5494    0.8993 C   0  0  0  0  0  0  0  0  0  0  0  0
   12.9134    0.6025    0.6178 C   0  0  0  0  0  0  0  0  0  0  0  0
   13.3707   -1.0178    0.2674 Cl  0  0  0  0  0  0  0  0  0  0  0  0
   11.5750    0.9743    0.5051 C   0  0  0  0  0  0  0  0  0  0  0  0
   11.2252    2.3224    0.6207 C   0  0  0  0  0  0  0  0  0  0  0  0
    8.2523   -1.1703   -0.6250 C   0  0  0  0  0  0  0  0  0  0  0  0
    7.7478   -2.4276   -0.7611 N   0  0  0  0  0  0  0  0  0  0  0  0
    6.4424   -2.5997   -0.4694 C   0  0  0  0  0  0  0  0  0  0  0  0
    5.6046   -1.5817   -0.0281 C   0  0  0  0  0  0  0  0  0  0  0  0
    4.2330   -1.8353    0.1753 C   0  0  0  0  0  0  0  0  0  0  0  0
    3.2303    1.2389    1.1618 H   0  0  0  0  0  0  0  0  0  0  0  0
    5.6202    1.7246    0.8231 H   0  0  0  0  0  0  0  0  0  0  0  0
    7.8414    1.7435    0.8643 H   0  0  0  0  0  0  0  0  0  0  0  0
    9.3669    3.4783    0.6272 H   0  0  0  0  0  0  0  0  0  0  0  0
    9.9614    4.5797   -1.6827 H   0  0  0  0  0  0  0  0  0  0  0  0
   11.3973    3.5684   -1.7323 H   0  0  0  0  0  0  0  0  0  0  0  0
   12.0608    7.3238   -2.5459 H   0  0  0  0  0  0  0  0  0  0  0  0
   13.3375    7.4997   -1.2843 H   0  0  0  0  0  0  0  0  0  0  0  0
   13.6611    9.5490    0.0762 H   0  0  0  0  0  0  0  0  0  0  0  0
   12.1872   10.5376    0.4145 H   0  0  0  0  0  0  0  0  0  0  0  0
   13.6986   10.2669   -2.2996 H   0  0  0  0  0  0  0  0  0  0  0  0
   12.2923   11.3402   -1.9436 H   0  0  0  0  0  0  0  0  0  0  0  0
   10.8566    4.7940    1.6987 H   0  0  0  0  0  0  0  0  0  0  0  0
   12.5617    5.2494    1.6687 H   0  0  0  0  0  0  0  0  0  0  0  0
   14.2915    3.6118    1.3642 H   0  0  0  0  0  0  0  0  0  0  0  0
   14.9463    1.2854    0.8567 H   0  0  0  0  0  0  0  0  0  0  0  0
   10.8574    0.2211    0.2018 H   0  0  0  0  0  0  0  0  0  0  0  0
    9.3108   -1.1167   -0.8576 H   0  0  0  0  0  0  0  0  0  0  0  0
    6.0733   -3.6142   -0.6140 H   0  0  0  0  0  0  0  0  0  0  0  0
    3.8008   -2.8172   -0.0087 H   0  0  0  0  0  0  0  0  0  0  0  0
  1  2  1  0  0  0  0
  2  3  1  0  0  0  0
  2 34  2  0  0  0  0
  3  4  2  0  0  0  0
  3 35  1  0  0  0  0
  4  5  1  0  0  0  0
  4 36  1  0  0  0  0
  5  6  1  0  0  0  0
  5 33  2  0  0  0  0
  6  7  1  0  0  0  0
  6 30  2  0  0  0  0
  7  8  1  0  0  0  0
  7 37  1  0  0  0  0
  8  9  2  0  0  0  0
  8 10  1  0  0  0  0
 10 11  1  0  0  0  0
 10 29  1  0  0  0  0
 10 38  1  0  0  0  0
 11 12  1  0  0  0  0
 11 39  1  0  0  0  0
 11 40  1  0  0  0  0
 12 13  1  0  0  0  0
 12 22  1  0  0  0  0
 13 14  2  0  0  0  0
 13 15  2  0  0  0  0
 13 16  1  0  0  0  0
 16 17  1  0  0  0  0
 16 41  1  0  0  0  0
 16 42  1  0  0  0  0
 17 18  1  0  0  0  0
 17 20  1  0  0  0  0
 17 21  1  0  0  0  0
 18 19  3  0  0  0  0
 20 21  1  0  0  0  0
 20 43  1  0  0  0  0
 20 44  1  0  0  0  0
 21 45  1  0  0  0  0
 21 46  1  0  0  0  0
 22 23  1  0  0  0  0
 22 47  1  0  0  0  0
 22 48  1  0  0  0  0
 23 24  1  0  0  0  0
 23 29  2  0  0  0  0
 24 25  2  0  0  0  0
 24 49  1  0  0  0  0
 25 26  1  0  0  0  0
 25 50  1  0  0  0  0
 26 27  1  0  0  0  0
 26 28  2  0  0  0  0
 28 29  1  0  0  0  0
 28 51  1  0  0  0  0
 30 31  1  0  0  0  0
 30 52  1  0  0  0  0
 31 32  2  0  0  0  0
 32 33  1  0  0  0  0
 32 53  1  0  0  0  0
 33 34  1  0  0  0  0
 34 54  1  0  0  0  0
M  END
$$$$
