
 OpenBabel07202414183D

 39 42  0  0  1  0  0  0  0  0999 V2000
    5.1471   -4.9499   -2.0722 F   0  0  0  0  0  0  0  0  0  0  0  0
    5.5488   -3.8246   -1.4622 C   0  0  0  0  0  0  0  0  0  0  0  0
    4.5989   -2.8623   -1.1354 C   0  0  0  0  0  0  0  0  0  0  0  0
    4.9897   -1.6882   -0.4987 C   0  0  0  0  0  0  0  0  0  0  0  0
    6.3368   -1.4631   -0.1803 C   0  0  0  0  0  0  0  0  0  0  0  0
    7.2885   -2.4371   -0.5343 C   0  0  0  0  0  0  0  0  0  0  0  0
    6.8924   -3.6132   -1.1720 C   0  0  0  0  0  0  0  0  0  0  0  0
    8.0838   -4.7815   -1.5994 Cl  0  0  0  0  0  0  0  0  0  0  0  0
    6.7637   -0.1967    0.5288 C   0  0  2  0  0  0  0  0  0  0  0  0
    7.0748   -0.4583    2.0160 C   0  0  0  0  0  0  0  0  0  0  0  0
    6.2301   -0.3172    2.8914 O   0  0  0  0  0  0  0  0  0  0  0  0
    8.3852   -0.8681    2.2211 N   0  0  0  0  0  0  0  0  0  0  0  0
    9.0275   -1.1176    3.4650 C   0  0  0  0  0  0  0  0  0  0  0  0
    8.3661   -1.0150    4.6896 C   0  0  0  0  0  0  0  0  0  0  0  0
    8.9727   -1.0844    5.8966 N   0  0  0  0  0  0  0  0  0  0  0  0
   10.2999   -1.3105    5.8918 C   0  0  0  0  0  0  0  0  0  0  0  0
   11.0573   -1.5411    4.7462 C   0  0  0  0  0  0  0  0  0  0  0  0
   12.4214   -1.8717    4.8399 C   0  0  0  0  0  0  0  0  0  0  0  0
   13.1686   -2.1437    3.6978 C   0  0  0  0  0  0  0  0  0  0  0  0
   12.5677   -2.0626    2.4497 C   0  0  0  0  0  0  0  0  0  0  0  0
   11.2160   -1.7148    2.3440 C   0  0  0  0  0  0  0  0  0  0  0  0
   10.4152   -1.4489    3.4876 C   0  0  0  0  0  0  0  0  0  0  0  0
    5.6881    0.8796    0.3652 C   0  0  0  0  0  0  0  0  0  0  0  0
    4.3041    0.2947    0.6124 C   0  0  0  0  0  0  0  0  0  0  0  0
    3.9922   -0.7833   -0.2744 O   0  0  0  0  0  0  0  0  0  0  0  0
    3.5556   -3.0369   -1.3805 H   0  0  0  0  0  0  0  0  0  0  0  0
    8.3454   -2.2818   -0.3287 H   0  0  0  0  0  0  0  0  0  0  0  0
    7.6743    0.1925    0.0525 H   0  0  0  0  0  0  0  0  0  0  0  0
    8.9852   -0.8732    1.4107 H   0  0  0  0  0  0  0  0  0  0  0  0
    7.2951   -0.8624    4.7664 H   0  0  0  0  0  0  0  0  0  0  0  0
   10.7546   -1.3146    6.8801 H   0  0  0  0  0  0  0  0  0  0  0  0
   12.9048   -1.9453    5.8124 H   0  0  0  0  0  0  0  0  0  0  0  0
   14.2135   -2.4308    3.7845 H   0  0  0  0  0  0  0  0  0  0  0  0
   13.1441   -2.2838    1.5548 H   0  0  0  0  0  0  0  0  0  0  0  0
   10.7984   -1.6943    1.3425 H   0  0  0  0  0  0  0  0  0  0  0  0
    5.7257    1.2551   -0.6654 H   0  0  0  0  0  0  0  0  0  0  0  0
    5.8705    1.7267    1.0326 H   0  0  0  0  0  0  0  0  0  0  0  0
    3.5556    1.0750    0.4397 H   0  0  0  0  0  0  0  0  0  0  0  0
    4.1629   -0.0457    1.6433 H   0  0  0  0  0  0  0  0  0  0  0  0
  1  2  1  0  0  0  0
  2  3  1  0  0  0  0
  2  7  2  0  0  0  0
  3  4  2  0  0  0  0
  3 26  1  0  0  0  0
  4  5  1  0  0  0  0
  4 25  1  0  0  0  0
  5  6  2  0  0  0  0
  5  9  1  0  0  0  0
  6  7  1  0  0  0  0
  6 27  1  0  0  0  0
  7  8  1  0  0  0  0
  9 10  1  0  0  0  0
  9 23  1  0  0  0  0
  9 28  1  6  0  0  0
 10 11  2  0  0  0  0
 10 12  1  0  0  0  0
 12 13  1  0  0  0  0
 12 29  1  0  0  0  0
 13 14  1  0  0  0  0
 13 22  2  0  0  0  0
 14 15  2  0  0  0  0
 14 30  1  0  0  0  0
 15 16  1  0  0  0  0
 16 17  2  0  0  0  0
 16 31  1  0  0  0  0
 17 18  1  0  0  0  0
 17 22  1  0  0  0  0
 18 19  2  0  0  0  0
 18 32  1  0  0  0  0
 19 20  1  0  0  0  0
 19 33  1  0  0  0  0
 20 21  2  0  0  0  0
 20 34  1  0  0  0  0
 21 22  1  0  0  0  0
 21 35  1  0  0  0  0
 23 24  1  0  0  0  0
 23 36  1  0  0  0  0
 23 37  1  0  0  0  0
 24 25  1  0  0  0  0
 24 38  1  0  0  0  0
 24 39  1  0  0  0  0
M  END
$$$$
