
 OpenBabel07202414153D

 63 66  0  0  1  0  0  0  0  0999 V2000
    2.2634    8.2902    5.0862 C   0  0  0  0  0  0  0  0  0  0  0  0
    2.0179    6.8823    3.9687 S   0  0  0  0  0  0  0  0  0  0  0  0
    2.7703    5.4595    4.7731 C   0  0  0  0  0  0  0  0  0  0  0  0
    3.0594    4.4049    3.8815 C   0  0  0  0  0  0  0  0  0  0  0  0
    3.4894    3.1479    4.3288 C   0  0  0  0  0  0  0  0  0  0  0  0
    3.7479    2.9313    5.6805 C   0  0  0  0  0  0  0  0  0  0  0  0
    3.8826    1.5279    6.2418 C   0  0  0  0  0  0  0  0  0  0  0  0
    5.1626    0.8209    6.1115 N   0  0  0  0  0  0  0  0  0  0  0  0
    5.0925   -0.5980    5.6071 C   0  0  3  0  0  0  0  0  0  0  0  0
    4.0120   -1.4492    6.3926 C   0  0  0  0  0  0  0  0  0  0  0  0
    3.4007   -2.3989    5.9067 O   0  0  0  0  0  0  0  0  0  0  0  0
    3.8963   -1.1858    7.7499 N   0  0  0  0  0  0  0  0  0  0  0  0
    2.9726   -1.9394    8.5953 C   0  0  0  0  0  0  0  0  0  0  0  0
    3.4146   -3.3915    8.8278 C   0  0  0  0  0  0  0  0  0  0  0  0
    2.4451   -4.1741    9.6822 C   0  0  0  0  0  0  0  0  0  0  0  0
    1.3636   -4.8484    9.0918 C   0  0  0  0  0  0  0  0  0  0  0  0
    0.4753   -5.5961    9.8716 C   0  0  0  0  0  0  0  0  0  0  0  0
    0.6553   -5.6727   11.2508 C   0  0  0  0  0  0  0  0  0  0  0  0
    1.7197   -4.9989   11.8375 C   0  0  0  0  0  0  0  0  0  0  0  0
    1.8954   -5.0738   13.1636 F   0  0  0  0  0  0  0  0  0  0  0  0
    2.6112   -4.2518   11.0708 C   0  0  0  0  0  0  0  0  0  0  0  0
    5.0438   -0.7232    4.0750 C   0  0  0  0  0  0  0  0  0  0  0  0
    5.4833    0.2951    3.2155 C   0  0  0  0  0  0  0  0  0  0  0  0
    5.5258    0.0977    1.8300 C   0  0  0  0  0  0  0  0  0  0  0  0
    5.1499   -1.1307    1.3232 C   0  0  0  0  0  0  0  0  0  0  0  0
    4.7554   -2.1520    2.1004 N   0  0  0  0  0  0  0  0  0  0  0  0
    4.7280   -1.9305    3.4418 C   0  0  0  0  0  0  0  0  0  0  0  0
    6.1857    1.2600    6.9880 C   0  0  0  0  0  0  0  0  0  0  0  0
    5.9602    2.2021    7.7527 O   0  0  0  0  0  0  0  0  0  0  0  0
    7.4714    0.5797    7.0588 C   0  0  0  0  0  0  0  0  0  0  0  0
    8.3975    0.5643    8.0911 C   0  0  0  0  0  0  0  0  0  0  0  0
    9.4988   -0.2069    7.6524 C   0  0  0  0  0  0  0  0  0  0  0  0
    9.1913   -0.6077    6.3749 C   0  0  0  0  0  0  0  0  0  0  0  0
    7.9784   -0.1223    5.9989 O   0  0  0  0  0  0  0  0  0  0  0  0
    3.5802    4.0123    6.5610 C   0  0  0  0  0  0  0  0  0  0  0  0
    2.9831    5.2208    6.1391 C   0  0  0  0  0  0  0  0  0  0  0  0
    2.4140    6.0183    7.1865 C   0  0  0  0  0  0  0  0  0  0  0  0
    1.9007    6.5788    8.0693 N   0  0  0  0  0  0  0  0  0  0  0  0
    1.8435    9.1801    4.6071 H   0  0  0  0  0  0  0  0  0  0  0  0
    3.3223    8.4730    5.2839 H   0  0  0  0  0  0  0  0  0  0  0  0
    1.7139    8.1597    6.0156 H   0  0  0  0  0  0  0  0  0  0  0  0
    2.8531    4.5208    2.8157 H   0  0  0  0  0  0  0  0  0  0  0  0
    3.5312    2.3276    3.6166 H   0  0  0  0  0  0  0  0  0  0  0  0
    3.0836    0.9288    5.7916 H   0  0  0  0  0  0  0  0  0  0  0  0
    3.6403    1.5734    7.3130 H   0  0  0  0  0  0  0  0  0  0  0  0
    6.0129   -1.1151    5.8819 H   0  0  0  0  0  0  0  0  0  0  0  0
    4.2815   -0.3272    8.1212 H   0  0  0  0  0  0  0  0  0  0  0  0
    1.9789   -1.9037    8.1329 H   0  0  0  0  0  0  0  0  0  0  0  0
    2.9128   -1.4072    9.5514 H   0  0  0  0  0  0  0  0  0  0  0  0
    4.4081   -3.4047    9.2938 H   0  0  0  0  0  0  0  0  0  0  0  0
    3.5396   -3.9211    7.8759 H   0  0  0  0  0  0  0  0  0  0  0  0
    1.2148   -4.8065    8.0134 H   0  0  0  0  0  0  0  0  0  0  0  0
   -0.3512   -6.1230    9.4007 H   0  0  0  0  0  0  0  0  0  0  0  0
   -0.0217   -6.2534   11.8691 H   0  0  0  0  0  0  0  0  0  0  0  0
    3.4353   -3.7499   11.5686 H   0  0  0  0  0  0  0  0  0  0  0  0
    5.8231    1.2495    3.6087 H   0  0  0  0  0  0  0  0  0  0  0  0
    5.8657    0.8804    1.1608 H   0  0  0  0  0  0  0  0  0  0  0  0
    5.1722   -1.3380    0.2567 H   0  0  0  0  0  0  0  0  0  0  0  0
    4.4543   -2.8274    3.9916 H   0  0  0  0  0  0  0  0  0  0  0  0
    8.2814    1.0599    9.0466 H   0  0  0  0  0  0  0  0  0  0  0  0
   10.4070   -0.4330    8.1953 H   0  0  0  0  0  0  0  0  0  0  0  0
    9.7092   -1.2025    5.6348 H   0  0  0  0  0  0  0  0  0  0  0  0
    3.7905    3.8710    7.6228 H   0  0  0  0  0  0  0  0  0  0  0  0
  1  2  1  0  0  0  0
  1 39  1  0  0  0  0
  1 40  1  0  0  0  0
  1 41  1  0  0  0  0
  2  3  1  0  0  0  0
  3  4  1  0  0  0  0
  3 36  2  0  0  0  0
  4  5  2  0  0  0  0
  4 42  1  0  0  0  0
  5  6  1  0  0  0  0
  5 43  1  0  0  0  0
  6  7  1  0  0  0  0
  6 35  2  0  0  0  0
  7  8  1  0  0  0  0
  7 44  1  0  0  0  0
  7 45  1  0  0  0  0
  8  9  1  0  0  0  0
  8 28  1  0  0  0  0
  9 10  1  0  0  0  0
  9 22  1  0  0  0  0
  9 46  1  0  0  0  0
 10 11  2  0  0  0  0
 10 12  1  0  0  0  0
 12 13  1  0  0  0  0
 12 47  1  0  0  0  0
 13 14  1  0  0  0  0
 13 48  1  0  0  0  0
 13 49  1  0  0  0  0
 14 15  1  0  0  0  0
 14 50  1  0  0  0  0
 14 51  1  0  0  0  0
 15 16  1  0  0  0  0
 15 21  2  0  0  0  0
 16 17  2  0  0  0  0
 16 52  1  0  0  0  0
 17 18  1  0  0  0  0
 17 53  1  0  0  0  0
 18 19  2  0  0  0  0
 18 54  1  0  0  0  0
 19 20  1  0  0  0  0
 19 21  1  0  0  0  0
 21 55  1  0  0  0  0
 22 23  1  0  0  0  0
 22 27  2  0  0  0  0
 23 24  2  0  0  0  0
 23 56  1  0  0  0  0
 24 25  1  0  0  0  0
 24 57  1  0  0  0  0
 25 26  2  0  0  0  0
 25 58  1  0  0  0  0
 26 27  1  0  0  0  0
 27 59  1  0  0  0  0
 28 29  2  0  0  0  0
 28 30  1  0  0  0  0
 30 31  2  0  0  0  0
 30 34  1  0  0  0  0
 31 32  1  0  0  0  0
 31 60  1  0  0  0  0
 32 33  2  0  0  0  0
 32 61  1  0  0  0  0
 33 34  1  0  0  0  0
 33 62  1  0  0  0  0
 35 36  1  0  0  0  0
 35 63  1  0  0  0  0
 36 37  1  0  0  0  0
 37 38  3  0  0  0  0
M  END
$$$$
