
 OpenBabel07202414133D

 49 51  0  0  0  0  0  0  0  0999 V2000
    1.1179    2.1212   -0.0931 C   0  0  0  0  0  0  0  0  0  0  0  0
    2.5794    2.2313   -0.0755 N   0  0  0  0  0  0  0  0  0  0  0  0
    2.9672    3.6364   -0.2198 C   0  0  0  0  0  0  0  0  0  0  0  0
    3.1109    1.6219    1.1627 C   0  0  0  0  0  0  0  0  0  0  0  0
    4.6445    1.6234    1.2564 C   0  0  0  0  0  0  0  0  0  0  0  0
    5.0641    0.9594    2.4590 O   0  0  0  0  0  0  0  0  0  0  0  0
    6.4175    0.9514    2.6899 C   0  0  0  0  0  0  0  0  0  0  0  0
    7.3734    1.4840    1.8293 C   0  0  0  0  0  0  0  0  0  0  0  0
    8.7205    1.4303    2.1672 C   0  0  0  0  0  0  0  0  0  0  0  0
    9.1362    0.8338    3.3617 C   0  0  0  0  0  0  0  0  0  0  0  0
   10.4917    0.7957    3.6733 C   0  0  0  0  0  0  0  0  0  0  0  0
   11.0017    0.2342    4.7806 N   0  0  0  0  0  0  0  0  0  0  0  0
   10.1123   -0.3107    5.6388 C   0  0  0  0  0  0  0  0  0  0  0  0
    8.7235   -0.3283    5.4582 C   0  0  0  0  0  0  0  0  0  0  0  0
    7.8559   -0.9392    6.4080 N   0  0  0  0  0  0  0  0  0  0  0  0
    8.2133   -1.3638    7.6813 C   0  0  0  0  0  0  0  0  0  0  0  0
    9.3111   -1.2139    8.2123 O   0  0  0  0  0  0  0  0  0  0  0  0
    7.0814   -2.0265    8.4501 C   0  0  0  0  0  0  0  0  0  0  0  0
    6.1885   -1.0132    9.1190 C   0  0  0  0  0  0  0  0  0  0  0  0
    6.7142   -0.1142   10.0602 C   0  0  0  0  0  0  0  0  0  0  0  0
    5.9070    0.8642   10.6389 C   0  0  0  0  0  0  0  0  0  0  0  0
    4.5624    0.9480   10.2910 C   0  0  0  0  0  0  0  0  0  0  0  0
    4.0249    0.0420    9.3763 C   0  0  0  0  0  0  0  0  0  0  0  0
    2.3619    0.1426    8.9443 Cl  0  0  0  0  0  0  0  0  0  0  0  0
    4.8275   -0.9387    8.7942 C   0  0  0  0  0  0  0  0  0  0  0  0
    8.2058    0.2670    4.2666 C   0  0  0  0  0  0  0  0  0  0  0  0
    6.8327    0.3528    3.8953 C   0  0  0  0  0  0  0  0  0  0  0  0
    0.7111    2.5292   -1.0254 H   0  0  0  0  0  0  0  0  0  0  0  0
    0.6555    2.6539    0.7459 H   0  0  0  0  0  0  0  0  0  0  0  0
    0.8090    1.0711   -0.0510 H   0  0  0  0  0  0  0  0  0  0  0  0
    2.4953    4.0811   -1.1038 H   0  0  0  0  0  0  0  0  0  0  0  0
    4.0455    3.7322   -0.3834 H   0  0  0  0  0  0  0  0  0  0  0  0
    2.6893    4.2344    0.6551 H   0  0  0  0  0  0  0  0  0  0  0  0
    2.7821    0.5752    1.2147 H   0  0  0  0  0  0  0  0  0  0  0  0
    2.6956    2.1118    2.0533 H   0  0  0  0  0  0  0  0  0  0  0  0
    5.0019    2.6588    1.2826 H   0  0  0  0  0  0  0  0  0  0  0  0
    5.0541    1.1001    0.3831 H   0  0  0  0  0  0  0  0  0  0  0  0
    7.1125    1.9489    0.8843 H   0  0  0  0  0  0  0  0  0  0  0  0
    9.4478    1.8595    1.4789 H   0  0  0  0  0  0  0  0  0  0  0  0
   11.2372    1.2282    3.0108 H   0  0  0  0  0  0  0  0  0  0  0  0
   10.5966   -0.7703    6.4933 H   0  0  0  0  0  0  0  0  0  0  0  0
    6.8754   -0.9898    6.1700 H   0  0  0  0  0  0  0  0  0  0  0  0
    7.5188   -2.6880    9.2090 H   0  0  0  0  0  0  0  0  0  0  0  0
    6.5164   -2.6738    7.7696 H   0  0  0  0  0  0  0  0  0  0  0  0
    7.7685   -0.1618   10.3389 H   0  0  0  0  0  0  0  0  0  0  0  0
    6.3303    1.5663   11.3520 H   0  0  0  0  0  0  0  0  0  0  0  0
    3.9355    1.7206   10.7305 H   0  0  0  0  0  0  0  0  0  0  0  0
    4.3915   -1.6389    8.0863 H   0  0  0  0  0  0  0  0  0  0  0  0
    6.0510   -0.0328    4.5428 H   0  0  0  0  0  0  0  0  0  0  0  0
  1  2  1  0  0  0  0
  1 28  1  0  0  0  0
  1 29  1  0  0  0  0
  1 30  1  0  0  0  0
  2  3  1  0  0  0  0
  2  4  1  0  0  0  0
  3 31  1  0  0  0  0
  3 32  1  0  0  0  0
  3 33  1  0  0  0  0
  4  5  1  0  0  0  0
  4 34  1  0  0  0  0
  4 35  1  0  0  0  0
  5  6  1  0  0  0  0
  5 36  1  0  0  0  0
  5 37  1  0  0  0  0
  6  7  1  0  0  0  0
  7  8  1  0  0  0  0
  7 27  2  0  0  0  0
  8  9  2  0  0  0  0
  8 38  1  0  0  0  0
  9 10  1  0  0  0  0
  9 39  1  0  0  0  0
 10 11  1  0  0  0  0
 10 26  2  0  0  0  0
 11 12  2  0  0  0  0
 11 40  1  0  0  0  0
 12 13  1  0  0  0  0
 13 14  2  0  0  0  0
 13 41  1  0  0  0  0
 14 15  1  0  0  0  0
 14 26  1  0  0  0  0
 15 16  1  0  0  0  0
 15 42  1  0  0  0  0
 16 17  2  0  0  0  0
 16 18  1  0  0  0  0
 18 19  1  0  0  0  0
 18 43  1  0  0  0  0
 18 44  1  0  0  0  0
 19 20  1  0  0  0  0
 19 25  2  0  0  0  0
 20 21  2  0  0  0  0
 20 45  1  0  0  0  0
 21 22  1  0  0  0  0
 21 46  1  0  0  0  0
 22 23  2  0  0  0  0
 22 47  1  0  0  0  0
 23 24  1  0  0  0  0
 23 25  1  0  0  0  0
 25 48  1  0  0  0  0
 26 27  1  0  0  0  0
 27 49  1  0  0  0  0
M  END
$$$$
