
 OpenBabel07202414123D

 46 47  0  0  1  0  0  0  0  0999 V2000
    2.9716    1.1930    1.8327 C   0  0  0  0  0  0  0  0  0  0  0  0
    4.4959    1.1013    1.8317 C   0  0  0  0  0  0  0  0  0  0  0  0
    5.0721    1.9315    2.9818 C   0  0  0  0  0  0  0  0  0  0  0  0
    5.0117   -0.3577    1.8856 C   0  0  0  0  0  0  0  0  0  0  0  0
    4.6620   -1.2330    0.6403 C   0  0  1  0  0  0  0  0  0  0  0  0
    5.2219   -0.6032   -0.6692 C   0  0  0  0  0  0  0  0  0  0  0  0
    6.6826   -0.7002   -0.7236 N   0  0  0  0  0  0  0  0  0  0  0  0
    7.5566    0.3222   -1.0936 C   0  0  0  0  0  0  0  0  0  0  0  0
    8.7651    0.1099   -1.1945 O   0  0  0  0  0  0  0  0  0  0  0  0
    6.9426    1.6903   -1.3600 C   0  0  0  0  0  0  0  0  0  0  0  0
    8.1733    2.9127   -1.7405 Cl  0  0  0  0  0  0  0  0  0  0  0  0
    7.2137   -2.0492   -0.5092 C   0  0  0  0  0  0  0  0  0  0  0  0
    6.5983   -2.7286    0.7307 C   0  0  0  0  0  0  0  0  0  0  0  0
    5.1183   -2.6514    0.8284 N   0  0  0  0  0  0  0  0  0  0  0  0
    4.4546   -3.5376   -0.1556 C   0  0  0  0  0  0  0  0  0  0  0  0
    4.7553   -5.0154   -0.0046 C   0  0  0  0  0  0  0  0  0  0  0  0
    5.2900   -5.7398   -1.0842 C   0  0  0  0  0  0  0  0  0  0  0  0
    5.5272   -7.1115   -0.9772 C   0  0  0  0  0  0  0  0  0  0  0  0
    5.2311   -7.7759    0.2128 C   0  0  0  0  0  0  0  0  0  0  0  0
    4.7041   -7.0642    1.2891 C   0  0  0  0  0  0  0  0  0  0  0  0
    4.3398   -7.8894    2.7549 Cl  0  0  0  0  0  0  0  0  0  0  0  0
    4.4637   -5.6935    1.1869 C   0  0  0  0  0  0  0  0  0  0  0  0
    2.6542    2.2346    1.7102 H   0  0  0  0  0  0  0  0  0  0  0  0
    2.5510    0.8189    2.7713 H   0  0  0  0  0  0  0  0  0  0  0  0
    2.5314    0.6268    1.0075 H   0  0  0  0  0  0  0  0  0  0  0  0
    4.8501    1.5775    0.9166 H   0  0  0  0  0  0  0  0  0  0  0  0
    4.7226    1.5714    3.9541 H   0  0  0  0  0  0  0  0  0  0  0  0
    4.7746    2.9818    2.8808 H   0  0  0  0  0  0  0  0  0  0  0  0
    6.1670    1.9007    2.9757 H   0  0  0  0  0  0  0  0  0  0  0  0
    4.6160   -0.8428    2.7879 H   0  0  0  0  0  0  0  0  0  0  0  0
    6.1007   -0.3177    2.0121 H   0  0  0  0  0  0  0  0  0  0  0  0
    3.5682   -1.2526    0.5702 H   0  0  0  0  0  0  0  0  0  0  0  0
    4.8755    0.4219   -0.7955 H   0  0  0  0  0  0  0  0  0  0  0  0
    4.8377   -1.1375   -1.5460 H   0  0  0  0  0  0  0  0  0  0  0  0
    6.4212    2.0452   -0.4722 H   0  0  0  0  0  0  0  0  0  0  0  0
    6.2594    1.6318   -2.2108 H   0  0  0  0  0  0  0  0  0  0  0  0
    8.3024   -2.0317   -0.4009 H   0  0  0  0  0  0  0  0  0  0  0  0
    6.9884   -2.6295   -1.4119 H   0  0  0  0  0  0  0  0  0  0  0  0
    7.0204   -2.2603    1.6283 H   0  0  0  0  0  0  0  0  0  0  0  0
    6.9444   -3.7676    0.7849 H   0  0  0  0  0  0  0  0  0  0  0  0
    4.6913   -3.2386   -1.1825 H   0  0  0  0  0  0  0  0  0  0  0  0
    3.3656   -3.4349   -0.0557 H   0  0  0  0  0  0  0  0  0  0  0  0
    5.5231   -5.2406   -2.0236 H   0  0  0  0  0  0  0  0  0  0  0  0
    5.9368   -7.6631   -1.8203 H   0  0  0  0  0  0  0  0  0  0  0  0
    5.4087   -8.8448    0.2921 H   0  0  0  0  0  0  0  0  0  0  0  0
    4.0498   -5.1480    2.0315 H   0  0  0  0  0  0  0  0  0  0  0  0
  1  2  1  0  0  0  0
  1 23  1  0  0  0  0
  1 24  1  0  0  0  0
  1 25  1  0  0  0  0
  2  3  1  0  0  0  0
  2  4  1  0  0  0  0
  2 26  1  0  0  0  0
  3 27  1  0  0  0  0
  3 28  1  0  0  0  0
  3 29  1  0  0  0  0
  4 30  1  0  0  0  0
  4 31  1  0  0  0  0
  5  6  1  0  0  0  0
  5 14  1  0  0  0  0
  5  4  1  0  0  0  0
  5 32  1  6  0  0  0
  6  7  1  0  0  0  0
  6 33  1  0  0  0  0
  6 34  1  0  0  0  0
  7  8  1  0  0  0  0
  7 12  1  0  0  0  0
  8  9  2  0  0  0  0
  8 10  1  0  0  0  0
 10 11  1  0  0  0  0
 10 35  1  0  0  0  0
 10 36  1  0  0  0  0
 12 13  1  0  0  0  0
 12 37  1  0  0  0  0
 12 38  1  0  0  0  0
 13 14  1  0  0  0  0
 13 39  1  0  0  0  0
 13 40  1  0  0  0  0
 14 15  1  0  0  0  0
 15 16  1  0  0  0  0
 15 41  1  0  0  0  0
 15 42  1  0  0  0  0
 16 17  1  0  0  0  0
 16 22  2  0  0  0  0
 17 18  2  0  0  0  0
 17 43  1  0  0  0  0
 18 19  1  0  0  0  0
 18 44  1  0  0  0  0
 19 20  2  0  0  0  0
 19 45  1  0  0  0  0
 20 21  1  0  0  0  0
 20 22  1  0  0  0  0
 22 46  1  0  0  0  0
M  END
$$$$
