
 OpenBabel07202414183D

 49 52  0  0  0  0  0  0  0  0999 V2000
    2.4307   -2.2944   -2.1966 F   0  0  0  0  0  0  0  0  0  0  0  0
    1.9943   -1.0793   -1.8339 C   0  0  0  0  0  0  0  0  0  0  0  0
    2.9131   -0.0832   -1.4876 C   0  0  0  0  0  0  0  0  0  0  0  0
    4.3939   -0.3595   -1.5334 C   0  0  0  0  0  0  0  0  0  0  0  0
    5.0025   -0.0942   -0.2263 N   0  0  0  0  0  0  0  0  0  0  0  0
    6.4011   -0.2003   -0.1429 C   0  0  0  0  0  0  0  0  0  0  0  0
    7.1555   -1.1145   -0.8847 C   0  0  0  0  0  0  0  0  0  0  0  0
    8.5447   -1.1477   -0.7651 C   0  0  0  0  0  0  0  0  0  0  0  0
    9.4576   -2.2403   -1.7335 Cl  0  0  0  0  0  0  0  0  0  0  0  0
    9.2053   -0.2895    0.1098 C   0  0  0  0  0  0  0  0  0  0  0  0
    8.4702    0.5917    0.9107 C   0  0  0  0  0  0  0  0  0  0  0  0
    9.1861    1.5919    1.7882 C   0  0  0  0  0  0  0  0  0  0  0  0
    8.8530    1.5502    3.2651 C   0  0  0  0  0  0  0  0  0  0  0  0
    8.7633    2.5904    3.9153 O   0  0  0  0  0  0  0  0  0  0  0  0
    8.8016    0.2885    3.8185 N   0  0  0  0  0  0  0  0  0  0  0  0
    8.5224    0.0816    5.1922 C   0  0  0  0  0  0  0  0  0  0  0  0
    7.4901    0.7729    5.8249 C   0  0  0  0  0  0  0  0  0  0  0  0
    7.1155    0.5831    7.1116 N   0  0  0  0  0  0  0  0  0  0  0  0
    7.8266   -0.3263    7.8140 C   0  0  0  0  0  0  0  0  0  0  0  0
    8.8909   -1.0684    7.2974 C   0  0  0  0  0  0  0  0  0  0  0  0
    9.6141   -1.9762    8.1005 C   0  0  0  0  0  0  0  0  0  0  0  0
   10.7083   -2.6645    7.5765 C   0  0  0  0  0  0  0  0  0  0  0  0
   11.0914   -2.4599    6.2585 C   0  0  0  0  0  0  0  0  0  0  0  0
   10.3728   -1.5716    5.4500 C   0  0  0  0  0  0  0  0  0  0  0  0
    9.2504   -0.8618    5.9468 C   0  0  0  0  0  0  0  0  0  0  0  0
    7.0679    0.5997    0.7991 C   0  0  0  0  0  0  0  0  0  0  0  0
    2.4237    1.1846   -1.1393 C   0  0  0  0  0  0  0  0  0  0  0  0
    1.0482    1.4329   -1.1237 C   0  0  0  0  0  0  0  0  0  0  0  0
    0.1553    0.4155   -1.4594 C   0  0  0  0  0  0  0  0  0  0  0  0
   -1.7045    0.7516   -1.4294 Br  0  0  0  0  0  0  0  0  0  0  0  0
    0.6225   -0.8447   -1.8187 C   0  0  0  0  0  0  0  0  0  0  0  0
    4.8384    0.2935   -2.2961 H   0  0  0  0  0  0  0  0  0  0  0  0
    4.5664   -1.3967   -1.8388 H   0  0  0  0  0  0  0  0  0  0  0  0
    4.5654   -0.6589    0.5020 H   0  0  0  0  0  0  0  0  0  0  0  0
    6.6810   -1.8047   -1.5744 H   0  0  0  0  0  0  0  0  0  0  0  0
   10.2921   -0.2968    0.1471 H   0  0  0  0  0  0  0  0  0  0  0  0
    8.9359    2.5941    1.4188 H   0  0  0  0  0  0  0  0  0  0  0  0
   10.2734    1.4811    1.6938 H   0  0  0  0  0  0  0  0  0  0  0  0
    9.2474   -0.4635    3.3124 H   0  0  0  0  0  0  0  0  0  0  0  0
    6.8828    1.5002    5.2902 H   0  0  0  0  0  0  0  0  0  0  0  0
    7.5071   -0.4391    8.8456 H   0  0  0  0  0  0  0  0  0  0  0  0
    9.3395   -2.1300    9.1374 H   0  0  0  0  0  0  0  0  0  0  0  0
   11.2694   -3.3520    8.2068 H   0  0  0  0  0  0  0  0  0  0  0  0
   11.9631   -2.9745    5.8561 H   0  0  0  0  0  0  0  0  0  0  0  0
   10.7388   -1.4119    4.4388 H   0  0  0  0  0  0  0  0  0  0  0  0
    6.4810    1.2887    1.4068 H   0  0  0  0  0  0  0  0  0  0  0  0
    3.1179    1.9816   -0.8772 H   0  0  0  0  0  0  0  0  0  0  0  0
    0.6862    2.4206   -0.8484 H   0  0  0  0  0  0  0  0  0  0  0  0
   -0.0575   -1.6454   -2.0889 H   0  0  0  0  0  0  0  0  0  0  0  0
  1  2  1  0  0  0  0
  2  3  2  0  0  0  0
  2 31  1  0  0  0  0
  3  4  1  0  0  0  0
  3 27  1  0  0  0  0
  4  5  1  0  0  0  0
  4 32  1  0  0  0  0
  4 33  1  0  0  0  0
  5  6  1  0  0  0  0
  5 34  1  0  0  0  0
  6  7  2  0  0  0  0
  6 26  1  0  0  0  0
  7  8  1  0  0  0  0
  7 35  1  0  0  0  0
  8  9  1  0  0  0  0
  8 10  2  0  0  0  0
 10 11  1  0  0  0  0
 10 36  1  0  0  0  0
 11 12  1  0  0  0  0
 11 26  2  0  0  0  0
 12 13  1  0  0  0  0
 12 37  1  0  0  0  0
 12 38  1  0  0  0  0
 13 14  2  0  0  0  0
 13 15  1  0  0  0  0
 15 16  1  0  0  0  0
 15 39  1  0  0  0  0
 16 17  2  0  0  0  0
 16 25  1  0  0  0  0
 17 18  1  0  0  0  0
 17 40  1  0  0  0  0
 18 19  2  0  0  0  0
 19 20  1  0  0  0  0
 19 41  1  0  0  0  0
 20 21  2  0  0  0  0
 20 25  1  0  0  0  0
 21 22  1  0  0  0  0
 21 42  1  0  0  0  0
 22 23  2  0  0  0  0
 22 43  1  0  0  0  0
 23 24  1  0  0  0  0
 23 44  1  0  0  0  0
 24 25  2  0  0  0  0
 24 45  1  0  0  0  0
 26 46  1  0  0  0  0
 27 28  2  0  0  0  0
 27 47  1  0  0  0  0
 28 29  1  0  0  0  0
 28 48  1  0  0  0  0
 29 30  1  0  0  0  0
 29 31  2  0  0  0  0
 31 49  1  0  0  0  0
M  END
$$$$
