
 OpenBabel07202414173D

 37 40  0  0  1  0  0  0  0  0999 V2000
    1.1338   -0.1573    0.0384 Cl  0  0  0  0  0  0  0  0  0  0  0  0
    2.8494   -0.1600    0.1613 C   0  0  0  0  0  0  0  0  0  0  0  0
    3.5520    1.0331   -0.0042 C   0  0  0  0  0  0  0  0  0  0  0  0
    4.9441    1.0339    0.0785 C   0  0  0  0  0  0  0  0  0  0  0  0
    5.6296   -0.1642    0.3128 C   0  0  0  0  0  0  0  0  0  0  0  0
    4.9264   -1.3760    0.4919 C   0  0  0  0  0  0  0  0  0  0  0  0
    3.5229   -1.3572    0.4191 C   0  0  0  0  0  0  0  0  0  0  0  0
    5.6732   -2.6748    0.7607 C   0  0  3  0  0  0  0  0  0  0  0  0
    5.7530   -3.0441    2.2499 C   0  0  0  0  0  0  0  0  0  0  0  0
    5.2512   -4.0764    2.6848 O   0  0  0  0  0  0  0  0  0  0  0  0
    6.4406   -2.1174    3.0014 N   0  0  0  0  0  0  0  0  0  0  0  0
    6.7230   -2.1762    4.3475 C   0  0  0  0  0  0  0  0  0  0  0  0
    6.5394   -3.1622    5.3282 C   0  0  0  0  0  0  0  0  0  0  0  0
    6.9971   -2.7873    6.5292 N   0  0  0  0  0  0  0  0  0  0  0  0
    7.4271   -1.5094    6.3498 N   0  0  0  0  0  0  0  0  0  0  0  0
    7.9159   -0.6305    7.3207 C   0  0  0  0  0  0  0  0  0  0  0  0
    8.2518    0.6288    6.9885 C   0  0  0  0  0  0  0  0  0  0  0  0
    8.1273    1.0459    5.6030 C   0  0  0  0  0  0  0  0  0  0  0  0
    7.6869    0.2028    4.6536 C   0  0  0  0  0  0  0  0  0  0  0  0
    7.2959   -1.1214    5.0153 C   0  0  0  0  0  0  0  0  0  0  0  0
    7.0807   -2.5916    0.1547 C   0  0  0  0  0  0  0  0  0  0  0  0
    7.7487   -1.3455    0.4898 N   0  0  0  0  0  0  0  0  0  0  0  0
    7.1156   -0.1297    0.3979 C   0  0  0  0  0  0  0  0  0  0  0  0
    7.7423    0.9181    0.4606 O   0  0  0  0  0  0  0  0  0  0  0  0
    3.0239    1.9637   -0.1987 H   0  0  0  0  0  0  0  0  0  0  0  0
    5.4918    1.9669   -0.0458 H   0  0  0  0  0  0  0  0  0  0  0  0
    2.9550   -2.2764    0.5491 H   0  0  0  0  0  0  0  0  0  0  0  0
    5.1445   -3.4962    0.2566 H   0  0  0  0  0  0  0  0  0  0  0  0
    6.8015   -1.3000    2.5295 H   0  0  0  0  0  0  0  0  0  0  0  0
    6.1054   -4.1501    5.2230 H   0  0  0  0  0  0  0  0  0  0  0  0
    7.9831   -1.0221    8.3259 H   0  0  0  0  0  0  0  0  0  0  0  0
    8.6084    1.3427    7.7205 H   0  0  0  0  0  0  0  0  0  0  0  0
    8.3973    2.0671    5.3485 H   0  0  0  0  0  0  0  0  0  0  0  0
    7.6079    0.5350    3.6218 H   0  0  0  0  0  0  0  0  0  0  0  0
    7.0209   -2.6254   -0.9392 H   0  0  0  0  0  0  0  0  0  0  0  0
    7.7175   -3.4154    0.4915 H   0  0  0  0  0  0  0  0  0  0  0  0
    8.7621   -1.2937    0.4427 H   0  0  0  0  0  0  0  0  0  0  0  0
  1  2  1  0  0  0  0
  2  3  1  0  0  0  0
  2  7  2  0  0  0  0
  3  4  2  0  0  0  0
  3 25  1  0  0  0  0
  4  5  1  0  0  0  0
  4 26  1  0  0  0  0
  5  6  2  0  0  0  0
  5 23  1  0  0  0  0
  6  7  1  0  0  0  0
  6  8  1  0  0  0  0
  7 27  1  0  0  0  0
  8  9  1  0  0  0  0
  8 21  1  0  0  0  0
  8 28  1  0  0  0  0
  9 10  2  0  0  0  0
  9 11  1  0  0  0  0
 11 12  1  0  0  0  0
 11 29  1  0  0  0  0
 12 13  1  0  0  0  0
 12 20  2  0  0  0  0
 13 14  2  0  0  0  0
 13 30  1  0  0  0  0
 14 15  1  0  0  0  0
 15 16  1  0  0  0  0
 15 20  1  0  0  0  0
 16 17  2  0  0  0  0
 16 31  1  0  0  0  0
 17 18  1  0  0  0  0
 17 32  1  0  0  0  0
 18 19  2  0  0  0  0
 18 33  1  0  0  0  0
 19 20  1  0  0  0  0
 19 34  1  0  0  0  0
 21 22  1  0  0  0  0
 21 35  1  0  0  0  0
 21 36  1  0  0  0  0
 22 23  1  0  0  0  0
 22 37  1  0  0  0  0
 23 24  2  0  0  0  0
M  END
$$$$
