
 OpenBabel07202414153D

 42 45  0  0  1  0  0  0  0  0999 V2000
    1.0012    0.1117    0.1085 C   0  0  0  0  0  0  0  0  0  0  0  0
    2.5075    0.0419   -0.1132 C   0  0  2  0  0  0  0  0  0  0  0  0
    3.0766   -1.2384    0.4971 C   0  0  0  0  0  0  0  0  0  0  0  0
    4.5712   -1.2978    0.1915 C   0  0  1  0  0  0  0  0  0  0  0  0
    4.8308   -1.5908   -1.2968 C   0  0  0  0  0  0  0  0  0  0  0  0
    5.3721   -0.7807   -2.0388 O   0  0  0  0  0  0  0  0  0  0  0  0
    4.3900   -2.8492   -1.6850 N   0  0  0  0  0  0  0  0  0  0  0  0
    4.6066   -3.4730   -2.9440 C   0  0  0  0  0  0  0  0  0  0  0  0
    5.3906   -2.9022   -3.9485 C   0  0  0  0  0  0  0  0  0  0  0  0
    5.7691   -3.5368   -5.0819 N   0  0  0  0  0  0  0  0  0  0  0  0
    5.3033   -4.7875   -5.2545 C   0  0  0  0  0  0  0  0  0  0  0  0
    4.4147   -5.4234   -4.3906 C   0  0  0  0  0  0  0  0  0  0  0  0
    3.8772   -6.6817   -4.7127 C   0  0  0  0  0  0  0  0  0  0  0  0
    2.9493   -7.2934   -3.8751 C   0  0  0  0  0  0  0  0  0  0  0  0
    2.5783   -6.6718   -2.6908 C   0  0  0  0  0  0  0  0  0  0  0  0
    3.1265   -5.4313   -2.3487 C   0  0  0  0  0  0  0  0  0  0  0  0
    4.0505   -4.7610   -3.1944 C   0  0  0  0  0  0  0  0  0  0  0  0
    5.2054    0.0040    0.6227 C   0  0  0  0  0  0  0  0  0  0  0  0
    6.5787    0.0632    0.9095 C   0  0  0  0  0  0  0  0  0  0  0  0
    7.1700    1.2803    1.2442 C   0  0  0  0  0  0  0  0  0  0  0  0
    8.8525    1.3416    1.6009 Cl  0  0  0  0  0  0  0  0  0  0  0  0
    6.4081    2.4443    1.2937 C   0  0  0  0  0  0  0  0  0  0  0  0
    5.0398    2.3870    1.0228 C   0  0  0  0  0  0  0  0  0  0  0  0
    4.4391    1.1734    0.6870 C   0  0  0  0  0  0  0  0  0  0  0  0
    3.0874    1.2129    0.4748 O   0  0  0  0  0  0  0  0  0  0  0  0
    0.4970   -0.7702   -0.2999 H   0  0  0  0  0  0  0  0  0  0  0  0
    0.5869    1.0021   -0.3758 H   0  0  0  0  0  0  0  0  0  0  0  0
    0.7633    0.1913    1.1747 H   0  0  0  0  0  0  0  0  0  0  0  0
    2.6898    0.0743   -1.1947 H   0  0  0  0  0  0  0  0  0  0  0  0
    2.5486   -2.1190    0.1161 H   0  0  0  0  0  0  0  0  0  0  0  0
    2.9361   -1.2210    1.5869 H   0  0  0  0  0  0  0  0  0  0  0  0
    5.0160   -2.1176    0.7734 H   0  0  0  0  0  0  0  0  0  0  0  0
    3.9522   -3.4157   -0.9750 H   0  0  0  0  0  0  0  0  0  0  0  0
    5.7797   -1.8921   -3.8887 H   0  0  0  0  0  0  0  0  0  0  0  0
    5.6680   -5.2772   -6.1539 H   0  0  0  0  0  0  0  0  0  0  0  0
    4.1563   -7.1785   -5.6401 H   0  0  0  0  0  0  0  0  0  0  0  0
    2.5079   -8.2464   -4.1550 H   0  0  0  0  0  0  0  0  0  0  0  0
    1.8487   -7.1432   -2.0365 H   0  0  0  0  0  0  0  0  0  0  0  0
    2.7776   -4.9831   -1.4236 H   0  0  0  0  0  0  0  0  0  0  0  0
    7.1909   -0.8340    0.8540 H   0  0  0  0  0  0  0  0  0  0  0  0
    6.8694    3.3968    1.5379 H   0  0  0  0  0  0  0  0  0  0  0  0
    4.4406    3.2924    1.0623 H   0  0  0  0  0  0  0  0  0  0  0  0
  1  2  1  0  0  0  0
  1 26  1  0  0  0  0
  1 27  1  0  0  0  0
  1 28  1  0  0  0  0
  2  3  1  0  0  0  0
  2 25  1  0  0  0  0
  2 29  1  6  0  0  0
  3  4  1  0  0  0  0
  3 30  1  0  0  0  0
  3 31  1  0  0  0  0
  4  5  1  0  0  0  0
  4 18  1  0  0  0  0
  4 32  1  1  0  0  0
  5  6  2  0  0  0  0
  5  7  1  0  0  0  0
  7  8  1  0  0  0  0
  7 33  1  0  0  0  0
  8  9  1  0  0  0  0
  8 17  2  0  0  0  0
  9 10  2  0  0  0  0
  9 34  1  0  0  0  0
 10 11  1  0  0  0  0
 11 12  2  0  0  0  0
 11 35  1  0  0  0  0
 12 13  1  0  0  0  0
 12 17  1  0  0  0  0
 13 14  2  0  0  0  0
 13 36  1  0  0  0  0
 14 15  1  0  0  0  0
 14 37  1  0  0  0  0
 15 16  2  0  0  0  0
 15 38  1  0  0  0  0
 16 17  1  0  0  0  0
 16 39  1  0  0  0  0
 18 19  1  0  0  0  0
 18 24  2  0  0  0  0
 19 20  2  0  0  0  0
 19 40  1  0  0  0  0
 20 21  1  0  0  0  0
 20 22  1  0  0  0  0
 22 23  2  0  0  0  0
 22 41  1  0  0  0  0
 23 24  1  0  0  0  0
 23 42  1  0  0  0  0
 24 25  1  0  0  0  0
M  END
$$$$
