
 OpenBabel07202414153D

 36 38  0  0  0  0  0  0  0  0999 V2000
    7.8644   -7.7363    3.4887 C   0  0  0  0  0  0  0  0  0  0  0  0
    7.7474   -6.3618    3.8513 O   0  0  0  0  0  0  0  0  0  0  0  0
    6.9051   -5.5620    3.1106 C   0  0  0  0  0  0  0  0  0  0  0  0
    5.8499   -6.1314    2.2780 C   0  0  0  0  0  0  0  0  0  0  0  0
    5.0115   -5.3492    1.5744 C   0  0  0  0  0  0  0  0  0  0  0  0
    5.1385   -3.9382    1.6365 C   0  0  0  0  0  0  0  0  0  0  0  0
    4.4373   -2.9969    1.0514 N   0  0  0  0  0  0  0  0  0  0  0  0
    5.0019   -1.8206    1.4609 C   0  0  0  0  0  0  0  0  0  0  0  0
    6.0714   -2.0300    2.3128 C   0  0  0  0  0  0  0  0  0  0  0  0
    6.8831   -1.0699    2.9273 N   0  0  0  0  0  0  0  0  0  0  0  0
    6.8722    0.3190    2.5252 C   0  0  0  0  0  0  0  0  0  0  0  0
    6.2133    0.6873    1.5626 O   0  0  0  0  0  0  0  0  0  0  0  0
    7.7538    1.2539    3.3168 C   0  0  0  0  0  0  0  0  0  0  0  0
    9.1564    1.3594    2.7735 C   0  0  0  0  0  0  0  0  0  0  0  0
    9.3874    1.7645    1.4486 C   0  0  0  0  0  0  0  0  0  0  0  0
   10.6906    1.9095    0.9646 C   0  0  0  0  0  0  0  0  0  0  0  0
   11.7782    1.6623    1.8002 C   0  0  0  0  0  0  0  0  0  0  0  0
   11.5577    1.2691    3.1173 C   0  0  0  0  0  0  0  0  0  0  0  0
   12.8945    0.9756    4.1588 Cl  0  0  0  0  0  0  0  0  0  0  0  0
   10.2583    1.1180    3.6065 C   0  0  0  0  0  0  0  0  0  0  0  0
    6.1495   -3.4126    2.4395 N   0  0  0  0  0  0  0  0  0  0  0  0
    7.0259   -4.2188    3.1702 C   0  0  0  0  0  0  0  0  0  0  0  0
    8.6515   -8.1831    4.1028 H   0  0  0  0  0  0  0  0  0  0  0  0
    8.1509   -7.8432    2.4368 H   0  0  0  0  0  0  0  0  0  0  0  0
    6.9369   -8.2791    3.6998 H   0  0  0  0  0  0  0  0  0  0  0  0
    5.7173   -7.2064    2.2166 H   0  0  0  0  0  0  0  0  0  0  0  0
    4.2289   -5.7712    0.9506 H   0  0  0  0  0  0  0  0  0  0  0  0
    4.5815   -0.8839    1.1178 H   0  0  0  0  0  0  0  0  0  0  0  0
    7.5232   -1.3705    3.6516 H   0  0  0  0  0  0  0  0  0  0  0  0
    7.7522    0.9288    4.3632 H   0  0  0  0  0  0  0  0  0  0  0  0
    7.2915    2.2488    3.3045 H   0  0  0  0  0  0  0  0  0  0  0  0
    8.5591    1.9909    0.7768 H   0  0  0  0  0  0  0  0  0  0  0  0
   10.8580    2.2292   -0.0620 H   0  0  0  0  0  0  0  0  0  0  0  0
   12.7900    1.7894    1.4230 H   0  0  0  0  0  0  0  0  0  0  0  0
   10.1170    0.8331    4.6467 H   0  0  0  0  0  0  0  0  0  0  0  0
    7.7874   -3.7456    3.7717 H   0  0  0  0  0  0  0  0  0  0  0  0
  1  2  1  0  0  0  0
  1 23  1  0  0  0  0
  1 24  1  0  0  0  0
  1 25  1  0  0  0  0
  2  3  1  0  0  0  0
  3  4  1  0  0  0  0
  3 22  2  0  0  0  0
  4  5  2  0  0  0  0
  4 26  1  0  0  0  0
  5  6  1  0  0  0  0
  5 27  1  0  0  0  0
  6  7  2  0  0  0  0
  6 21  1  0  0  0  0
  7  8  1  0  0  0  0
  8  9  2  0  0  0  0
  8 28  1  0  0  0  0
  9 10  1  0  0  0  0
  9 21  1  0  0  0  0
 10 11  1  0  0  0  0
 10 29  1  0  0  0  0
 11 12  2  0  0  0  0
 11 13  1  0  0  0  0
 13 14  1  0  0  0  0
 13 30  1  0  0  0  0
 13 31  1  0  0  0  0
 14 15  1  0  0  0  0
 14 20  2  0  0  0  0
 15 16  2  0  0  0  0
 15 32  1  0  0  0  0
 16 17  1  0  0  0  0
 16 33  1  0  0  0  0
 17 18  2  0  0  0  0
 17 34  1  0  0  0  0
 18 19  1  0  0  0  0
 18 20  1  0  0  0  0
 20 35  1  0  0  0  0
 21 22  1  0  0  0  0
 22 36  1  0  0  0  0
M  END
$$$$
