
 OpenBabel07202414133D

 29 29  0  0  0  0  0  0  0  0999 V2000
    1.1360    0.3152   -1.1952 C   0  0  0  0  0  0  0  0  0  0  0  0
    2.5232    0.1057   -0.7916 N   0  0  0  0  0  0  0  0  0  0  0  0
    3.0396   -1.2618   -0.6389 C   0  0  0  0  0  0  0  0  0  0  0  0
    2.0910   -2.4334   -0.9246 C   0  0  0  0  0  0  0  0  0  0  0  0
    0.9382   -2.4578   -0.4978 O   0  0  0  0  0  0  0  0  0  0  0  0
    2.6804   -3.4746   -1.6278 N   0  0  0  0  0  0  0  0  0  0  0  0
    1.9692   -4.6246   -2.0437 C   0  0  0  0  0  0  0  0  0  0  0  0
    0.6624   -4.5258   -2.5364 C   0  0  0  0  0  0  0  0  0  0  0  0
   -0.0310   -5.6695   -2.9382 C   0  0  0  0  0  0  0  0  0  0  0  0
    0.5705   -6.9226   -2.8338 C   0  0  0  0  0  0  0  0  0  0  0  0
    1.8753   -7.0318   -2.3547 C   0  0  0  0  0  0  0  0  0  0  0  0
    2.5812   -5.8846   -1.9835 C   0  0  0  0  0  0  0  0  0  0  0  0
    4.3440   -6.0934   -1.3039 Br  0  0  0  0  0  0  0  0  0  0  0  0
    3.2336    1.2383   -0.3992 C   0  0  0  0  0  0  0  0  0  0  0  0
    2.7255    2.3632   -0.4112 O   0  0  0  0  0  0  0  0  0  0  0  0
    4.6729    1.0852    0.0561 C   0  0  0  0  0  0  0  0  0  0  0  0
    5.7304    1.0725   -1.3634 Cl  0  0  0  0  0  0  0  0  0  0  0  0
    0.7710   -0.4935   -1.8309 H   0  0  0  0  0  0  0  0  0  0  0  0
    1.0516    1.2360   -1.7804 H   0  0  0  0  0  0  0  0  0  0  0  0
    0.5186    0.4113   -0.2968 H   0  0  0  0  0  0  0  0  0  0  0  0
    3.3727   -1.3861    0.3980 H   0  0  0  0  0  0  0  0  0  0  0  0
    3.9239   -1.3421   -1.2799 H   0  0  0  0  0  0  0  0  0  0  0  0
    3.6841   -3.5882   -1.5375 H   0  0  0  0  0  0  0  0  0  0  0  0
    0.1731   -3.5587   -2.6323 H   0  0  0  0  0  0  0  0  0  0  0  0
   -1.0433   -5.5802   -3.3254 H   0  0  0  0  0  0  0  0  0  0  0  0
    0.0181   -7.8141   -3.1215 H   0  0  0  0  0  0  0  0  0  0  0  0
    2.3275   -8.0159   -2.2616 H   0  0  0  0  0  0  0  0  0  0  0  0
    4.8332    0.1829    0.6421 H   0  0  0  0  0  0  0  0  0  0  0  0
    4.9385    1.9443    0.6859 H   0  0  0  0  0  0  0  0  0  0  0  0
  1  2  1  0  0  0  0
  1 18  1  0  0  0  0
  1 19  1  0  0  0  0
  1 20  1  0  0  0  0
  2  3  1  0  0  0  0
  2 14  1  0  0  0  0
  3  4  1  0  0  0  0
  3 21  1  0  0  0  0
  3 22  1  0  0  0  0
  4  5  2  0  0  0  0
  4  6  1  0  0  0  0
  6  7  1  0  0  0  0
  6 23  1  0  0  0  0
  7  8  1  0  0  0  0
  7 12  2  0  0  0  0
  8  9  2  0  0  0  0
  8 24  1  0  0  0  0
  9 10  1  0  0  0  0
  9 25  1  0  0  0  0
 10 11  2  0  0  0  0
 10 26  1  0  0  0  0
 11 12  1  0  0  0  0
 11 27  1  0  0  0  0
 12 13  1  0  0  0  0
 14 15  2  0  0  0  0
 14 16  1  0  0  0  0
 16 17  1  0  0  0  0
 16 28  1  0  0  0  0
 16 29  1  0  0  0  0
M  END
$$$$
