
 OpenBabel07202414143D

 57 62  0  0  1  0  0  0  0  0999 V2000
    3.4242   -5.1832    1.1380 C   0  0  0  0  0  0  0  0  0  0  0  0
    3.9467   -3.8674    1.3961 N   0  0  0  0  0  0  0  0  0  0  0  0
    3.6708   -2.8386    0.5314 C   0  0  0  0  0  0  0  0  0  0  0  0
    2.8890   -2.9432   -0.4142 O   0  0  0  0  0  0  0  0  0  0  0  0
    4.3728   -1.5050    0.8136 C   0  0  0  0  0  0  0  0  0  0  0  0
    5.3624   -1.4138    1.8967 N   0  0  0  0  0  0  0  0  0  0  0  0
    5.4883   -0.1294    2.5843 C   0  0  0  0  0  0  0  0  0  0  0  0
    6.3793    0.9187    1.8635 C   0  0  2  0  0  0  0  0  0  0  0  0
    6.7438    1.9377    2.9789 C   0  0  0  0  0  0  0  0  0  0  0  0
    7.5318    1.7368    3.8928 O   0  0  0  0  0  0  0  0  0  0  0  0
    5.9702    3.0965    2.7558 N   0  0  0  0  0  0  0  0  0  0  0  0
    5.9144    4.2149    3.6324 C   0  0  0  0  0  0  0  0  0  0  0  0
    5.7871    3.9976    5.0054 C   0  0  0  0  0  0  0  0  0  0  0  0
    5.4921    4.9555    5.9165 N   0  0  0  0  0  0  0  0  0  0  0  0
    5.3565    6.2129    5.4489 C   0  0  0  0  0  0  0  0  0  0  0  0
    5.5818    6.5857    4.1214 C   0  0  0  0  0  0  0  0  0  0  0  0
    5.4959    7.9291    3.7132 C   0  0  0  0  0  0  0  0  0  0  0  0
    5.8057    8.2937    2.4088 C   0  0  0  0  0  0  0  0  0  0  0  0
    6.2339    7.3268    1.5076 C   0  0  0  0  0  0  0  0  0  0  0  0
    6.3094    5.9903    1.9038 C   0  0  0  0  0  0  0  0  0  0  0  0
    5.9218    5.5704    3.1976 C   0  0  0  0  0  0  0  0  0  0  0  0
    5.2282    2.9839    1.5596 C   0  0  0  0  0  0  0  0  0  0  0  0
    4.2985    3.8349    0.9819 C   0  0  0  0  0  0  0  0  0  0  0  0
    3.8389    3.5516   -0.3065 C   0  0  0  0  0  0  0  0  0  0  0  0
    4.2849    2.4216   -0.9952 C   0  0  0  0  0  0  0  0  0  0  0  0
    5.1424    1.5204   -0.3738 C   0  0  0  0  0  0  0  0  0  0  0  0
    5.5554    1.7816    0.9263 C   0  0  0  0  0  0  0  0  0  0  0  0
    7.5632    0.2607    1.1747 C   0  0  0  0  0  0  0  0  0  0  0  0
    8.5006    1.0306    0.4627 C   0  0  0  0  0  0  0  0  0  0  0  0
    9.4721    0.4083   -0.3177 C   0  0  0  0  0  0  0  0  0  0  0  0
   10.2867    1.1579   -1.0705 F   0  0  0  0  0  0  0  0  0  0  0  0
    9.5769   -0.9750   -0.3704 C   0  0  0  0  0  0  0  0  0  0  0  0
    8.6821   -1.7578    0.3545 C   0  0  0  0  0  0  0  0  0  0  0  0
    7.6611   -1.1470    1.1000 C   0  0  0  0  0  0  0  0  0  0  0  0
    6.5736   -2.0385    1.6033 C   0  0  0  0  0  0  0  0  0  0  0  0
    6.6802   -3.2594    1.5964 O   0  0  0  0  0  0  0  0  0  0  0  0
    3.7769   -5.8598    1.9179 H   0  0  0  0  0  0  0  0  0  0  0  0
    3.7698   -5.5261    0.1583 H   0  0  0  0  0  0  0  0  0  0  0  0
    2.3314   -5.1427    1.1398 H   0  0  0  0  0  0  0  0  0  0  0  0
    4.8408   -3.7972    1.8832 H   0  0  0  0  0  0  0  0  0  0  0  0
    3.5754   -0.7816    1.0143 H   0  0  0  0  0  0  0  0  0  0  0  0
    4.8798   -1.2434   -0.1202 H   0  0  0  0  0  0  0  0  0  0  0  0
    5.9460   -0.3804    3.5533 H   0  0  0  0  0  0  0  0  0  0  0  0
    4.4859    0.2507    2.8214 H   0  0  0  0  0  0  0  0  0  0  0  0
    5.8669    3.0010    5.4371 H   0  0  0  0  0  0  0  0  0  0  0  0
    5.0825    6.9473    6.2013 H   0  0  0  0  0  0  0  0  0  0  0  0
    5.2056    8.7054    4.4190 H   0  0  0  0  0  0  0  0  0  0  0  0
    5.7402    9.3321    2.0939 H   0  0  0  0  0  0  0  0  0  0  0  0
    6.5149    7.6037    0.4923 H   0  0  0  0  0  0  0  0  0  0  0  0
    6.6889    5.2692    1.1826 H   0  0  0  0  0  0  0  0  0  0  0  0
    3.9355    4.7253    1.4854 H   0  0  0  0  0  0  0  0  0  0  0  0
    3.1393    4.2328   -0.7931 H   0  0  0  0  0  0  0  0  0  0  0  0
    3.9535    2.2355   -2.0147 H   0  0  0  0  0  0  0  0  0  0  0  0
    5.4862    0.6459   -0.9175 H   0  0  0  0  0  0  0  0  0  0  0  0
    8.4451    2.1164    0.4434 H   0  0  0  0  0  0  0  0  0  0  0  0
   10.3265   -1.4382   -1.0043 H   0  0  0  0  0  0  0  0  0  0  0  0
    8.7340   -2.8420    0.2787 H   0  0  0  0  0  0  0  0  0  0  0  0
  1  2  1  0  0  0  0
  1 37  1  0  0  0  0
  1 38  1  0  0  0  0
  1 39  1  0  0  0  0
  2  3  1  0  0  0  0
  2 40  1  0  0  0  0
  3  4  2  0  0  0  0
  3  5  1  0  0  0  0
  5  6  1  0  0  0  0
  5 41  1  0  0  0  0
  5 42  1  0  0  0  0
  6  7  1  0  0  0  0
  6 35  1  0  0  0  0
  7  8  1  0  0  0  0
  7 43  1  0  0  0  0
  7 44  1  0  0  0  0
  8  9  1  1  0  0  0
  8 27  1  0  0  0  0
  8 28  1  0  0  0  0
  9 10  2  0  0  0  0
  9 11  1  0  0  0  0
 11 12  1  0  0  0  0
 11 22  1  0  0  0  0
 12 13  1  0  0  0  0
 12 21  2  0  0  0  0
 13 14  2  0  0  0  0
 13 45  1  0  0  0  0
 14 15  1  0  0  0  0
 15 16  2  0  0  0  0
 15 46  1  0  0  0  0
 16 17  1  0  0  0  0
 16 21  1  0  0  0  0
 17 18  2  0  0  0  0
 17 47  1  0  0  0  0
 18 19  1  0  0  0  0
 18 48  1  0  0  0  0
 19 20  2  0  0  0  0
 19 49  1  0  0  0  0
 20 21  1  0  0  0  0
 20 50  1  0  0  0  0
 22 23  1  0  0  0  0
 22 27  2  0  0  0  0
 23 24  2  0  0  0  0
 23 51  1  0  0  0  0
 24 25  1  0  0  0  0
 24 52  1  0  0  0  0
 25 26  2  0  0  0  0
 25 53  1  0  0  0  0
 26 27  1  0  0  0  0
 26 54  1  0  0  0  0
 28 29  1  0  0  0  0
 28 34  2  0  0  0  0
 29 30  2  0  0  0  0
 29 55  1  0  0  0  0
 30 31  1  0  0  0  0
 30 32  1  0  0  0  0
 32 33  2  0  0  0  0
 32 56  1  0  0  0  0
 33 34  1  0  0  0  0
 33 57  1  0  0  0  0
 34 35  1  0  0  0  0
 35 36  2  0  0  0  0
M  END
$$$$
