
 OpenBabel07202414203D

 34 36  0  0  0  0  0  0  0  0999 V2000
   -2.4099   -0.8634   -0.0469 C   0  0  0  0  0  0  0  0  0  0  0  0
   -2.4762    0.5302   -0.0490 C   0  0  0  0  0  0  0  0  0  0  0  0
   -1.3030    1.2835    0.0232 C   0  0  0  0  0  0  0  0  0  0  0  0
   -0.0584    0.6554    0.0854 C   0  0  0  0  0  0  0  0  0  0  0  0
    0.0024   -0.7413    0.0476 C   0  0  0  0  0  0  0  0  0  0  0  0
   -1.1698   -1.5060   -0.0011 C   0  0  0  0  0  0  0  0  0  0  0  0
    1.3424   -1.3734    0.0620 C   0  0  0  0  0  0  0  0  0  0  0  0
    1.4777   -2.5957    0.0913 O   0  0  0  0  0  0  0  0  0  0  0  0
    2.4127   -0.4849    0.0800 N   0  0  0  0  0  0  0  0  0  0  0  0
    2.2317    0.8717    0.2249 C   0  0  0  0  0  0  0  0  0  0  0  0
    1.0823    1.4596    0.2239 N   0  0  0  0  0  0  0  0  0  0  0  0
    3.7157   -1.0433    0.1744 N   0  0  0  0  0  0  0  0  0  0  0  0
    4.7556   -0.4881   -0.5526 C   0  0  0  0  0  0  0  0  0  0  0  0
    4.6532    0.5234   -1.2455 O   0  0  0  0  0  0  0  0  0  0  0  0
    6.0829   -1.2073   -0.3894 C   0  0  0  0  0  0  0  0  0  0  0  0
    6.3896   -2.2278   -1.4581 C   0  0  0  0  0  0  0  0  0  0  0  0
    5.9246   -2.0969   -2.7748 C   0  0  0  0  0  0  0  0  0  0  0  0
    6.2199   -3.0672   -3.7349 C   0  0  0  0  0  0  0  0  0  0  0  0
    7.0089   -4.1660   -3.4001 C   0  0  0  0  0  0  0  0  0  0  0  0
    7.5203   -4.2774   -2.1107 C   0  0  0  0  0  0  0  0  0  0  0  0
    7.2227   -3.3145   -1.1455 C   0  0  0  0  0  0  0  0  0  0  0  0
    8.5244   -5.6133   -1.7008 Cl  0  0  0  0  0  0  0  0  0  0  0  0
   -3.3273   -1.4470   -0.0823 H   0  0  0  0  0  0  0  0  0  0  0  0
   -3.4390    1.0336   -0.0956 H   0  0  0  0  0  0  0  0  0  0  0  0
   -1.3542    2.3696    0.0359 H   0  0  0  0  0  0  0  0  0  0  0  0
   -1.1230   -2.5929   -0.0009 H   0  0  0  0  0  0  0  0  0  0  0  0
    3.1485    1.4631    0.3597 H   0  0  0  0  0  0  0  0  0  0  0  0
    3.7105   -2.0535    0.3219 H   0  0  0  0  0  0  0  0  0  0  0  0
    6.0926   -1.6873    0.5977 H   0  0  0  0  0  0  0  0  0  0  0  0
    6.8766   -0.4497   -0.3760 H   0  0  0  0  0  0  0  0  0  0  0  0
    5.3265   -1.2377   -3.0769 H   0  0  0  0  0  0  0  0  0  0  0  0
    5.8343   -2.9617   -4.7462 H   0  0  0  0  0  0  0  0  0  0  0  0
    7.2278   -4.9220   -4.1489 H   0  0  0  0  0  0  0  0  0  0  0  0
    7.6440   -3.4130   -0.1472 H   0  0  0  0  0  0  0  0  0  0  0  0
  1  2  1  0  0  0  0
  1  6  2  0  0  0  0
  1 23  1  0  0  0  0
  2  3  2  0  0  0  0
  2 24  1  0  0  0  0
  3  4  1  0  0  0  0
  3 25  1  0  0  0  0
  4  5  2  0  0  0  0
  4 11  1  0  0  0  0
  5  6  1  0  0  0  0
  5  7  1  0  0  0  0
  6 26  1  0  0  0  0
  7  8  2  0  0  0  0
  7  9  1  0  0  0  0
  9 10  1  0  0  0  0
  9 12  1  0  0  0  0
 10 11  2  0  0  0  0
 10 27  1  0  0  0  0
 12 13  1  0  0  0  0
 12 28  1  0  0  0  0
 13 14  2  0  0  0  0
 13 15  1  0  0  0  0
 15 16  1  0  0  0  0
 15 29  1  0  0  0  0
 15 30  1  0  0  0  0
 16 17  1  0  0  0  0
 16 21  2  0  0  0  0
 17 18  2  0  0  0  0
 17 31  1  0  0  0  0
 18 19  1  0  0  0  0
 18 32  1  0  0  0  0
 19 20  2  0  0  0  0
 19 33  1  0  0  0  0
 20 21  1  0  0  0  0
 20 22  1  0  0  0  0
 21 34  1  0  0  0  0
M  END
$$$$
