
 OpenBabel07202414173D

 51 53  0  0  1  0  0  0  0  0999 V2000
    0.9103    0.2684   -0.1057 Cl  0  0  0  0  0  0  0  0  0  0  0  0
    2.6372    0.6616   -0.0059 C   0  0  0  0  0  0  0  0  0  0  0  0
    3.1987    0.4417    1.3899 C   0  0  0  0  0  0  0  0  0  0  0  0
    2.4853    0.1890    2.3608 O   0  0  0  0  0  0  0  0  0  0  0  0
    4.5878    0.5325    1.5140 N   0  0  0  0  0  0  0  0  0  0  0  0
    5.5125    1.0437    0.4931 C   0  0  0  0  0  0  0  0  0  0  0  0
    6.6968    0.0908    0.2295 C   0  0  0  0  0  0  0  0  0  0  0  0
    7.3477   -0.4156    1.4882 N   0  0  0  0  0  0  0  0  0  0  0  0
    8.3390    0.7277    2.3106 S   0  0  0  0  0  0  0  0  0  0  0  0
    7.6225    1.9778    2.4303 O   0  0  0  0  0  0  0  0  0  0  0  0
    8.8916    0.0650    3.4732 O   0  0  0  0  0  0  0  0  0  0  0  0
    9.7354    1.1467    1.3712 C   0  0  0  0  0  0  0  0  0  0  0  0
   10.0015    2.4525    0.8506 C   0  0  0  0  0  0  0  0  0  0  0  0
   11.2267    2.5194    0.2224 C   0  0  0  0  0  0  0  0  0  0  0  0
   12.0430    1.0150    0.2506 S   0  0  0  0  0  0  0  0  0  0  0  0
   10.7683    0.2696    1.1180 C   0  0  0  0  0  0  0  0  0  0  0  0
    6.2938   -1.0240    2.4195 C   0  0  2  0  0  0  0  0  0  0  0  0
    5.5675   -2.2596    1.8548 C   0  0  0  0  0  0  0  0  0  0  0  0
    4.3485   -2.4108    1.9515 O   0  0  0  0  0  0  0  0  0  0  0  0
    6.3249   -3.2335    1.2390 N   0  0  0  0  0  0  0  0  0  0  0  0
    5.6633   -4.4356    0.7260 C   0  0  0  0  0  0  0  0  0  0  0  0
    4.7987   -4.1463   -0.5115 C   0  0  0  0  0  0  0  0  0  0  0  0
    4.0355   -5.3503   -1.0090 C   0  0  0  0  0  0  0  0  0  0  0  0
    2.7491   -5.6250   -0.5235 C   0  0  0  0  0  0  0  0  0  0  0  0
    2.0238   -6.7104   -1.0170 C   0  0  0  0  0  0  0  0  0  0  0  0
    2.5773   -7.5361   -1.9927 C   0  0  0  0  0  0  0  0  0  0  0  0
    3.8619   -7.2823   -2.4691 C   0  0  0  0  0  0  0  0  0  0  0  0
    4.5899   -6.1954   -1.9781 C   0  0  0  0  0  0  0  0  0  0  0  0
    5.2121    0.0338    2.7547 C   0  0  0  0  0  0  0  0  0  0  0  0
    2.7601    1.7091   -0.2904 H   0  0  0  0  0  0  0  0  0  0  0  0
    3.1520    0.0080   -0.7160 H   0  0  0  0  0  0  0  0  0  0  0  0
    5.8606    2.0192    0.8423 H   0  0  0  0  0  0  0  0  0  0  0  0
    4.9983    1.2350   -0.4510 H   0  0  0  0  0  0  0  0  0  0  0  0
    7.4420    0.5686   -0.4156 H   0  0  0  0  0  0  0  0  0  0  0  0
    6.3346   -0.7811   -0.3300 H   0  0  0  0  0  0  0  0  0  0  0  0
    9.3493    3.3120    0.9645 H   0  0  0  0  0  0  0  0  0  0  0  0
   11.6928    3.3827   -0.2359 H   0  0  0  0  0  0  0  0  0  0  0  0
   10.8577   -0.7601    1.4355 H   0  0  0  0  0  0  0  0  0  0  0  0
    6.7852   -1.3685    3.3366 H   0  0  0  0  0  0  0  0  0  0  0  0
    7.3320   -3.2222    1.3566 H   0  0  0  0  0  0  0  0  0  0  0  0
    5.0445   -4.8522    1.5336 H   0  0  0  0  0  0  0  0  0  0  0  0
    6.4388   -5.1707    0.4943 H   0  0  0  0  0  0  0  0  0  0  0  0
    5.4346   -3.7557   -1.3162 H   0  0  0  0  0  0  0  0  0  0  0  0
    4.0775   -3.3437   -0.3134 H   0  0  0  0  0  0  0  0  0  0  0  0
    2.2972   -4.9794    0.2253 H   0  0  0  0  0  0  0  0  0  0  0  0
    1.0174   -6.9038   -0.6492 H   0  0  0  0  0  0  0  0  0  0  0  0
    2.0074   -8.3750   -2.3848 H   0  0  0  0  0  0  0  0  0  0  0  0
    4.2937   -7.9245   -3.2314 H   0  0  0  0  0  0  0  0  0  0  0  0
    5.5840   -6.0032   -2.3726 H   0  0  0  0  0  0  0  0  0  0  0  0
    5.6299    0.8931    3.2854 H   0  0  0  0  0  0  0  0  0  0  0  0
    4.4646   -0.4003    3.4274 H   0  0  0  0  0  0  0  0  0  0  0  0
  1  2  1  0  0  0  0
  2  3  1  0  0  0  0
  2 30  1  0  0  0  0
  2 31  1  0  0  0  0
  3  4  2  0  0  0  0
  3  5  1  0  0  0  0
  5  6  1  0  0  0  0
  5 29  1  0  0  0  0
  6  7  1  0  0  0  0
  6 32  1  0  0  0  0
  6 33  1  0  0  0  0
  7  8  1  0  0  0  0
  7 34  1  0  0  0  0
  7 35  1  0  0  0  0
  8  9  1  0  0  0  0
  8 17  1  0  0  0  0
  9 10  2  0  0  0  0
  9 11  2  0  0  0  0
  9 12  1  0  0  0  0
 12 13  1  0  0  0  0
 12 16  2  0  0  0  0
 13 14  2  0  0  0  0
 13 36  1  0  0  0  0
 14 15  1  0  0  0  0
 14 37  1  0  0  0  0
 15 16  1  0  0  0  0
 16 38  1  0  0  0  0
 17 29  1  0  0  0  0
 17 18  1  0  0  0  0
 17 39  1  1  0  0  0
 18 19  2  0  0  0  0
 18 20  1  0  0  0  0
 20 21  1  0  0  0  0
 20 40  1  0  0  0  0
 21 22  1  0  0  0  0
 21 41  1  0  0  0  0
 21 42  1  0  0  0  0
 22 23  1  0  0  0  0
 22 43  1  0  0  0  0
 22 44  1  0  0  0  0
 23 24  1  0  0  0  0
 23 28  2  0  0  0  0
 24 25  2  0  0  0  0
 24 45  1  0  0  0  0
 25 26  1  0  0  0  0
 25 46  1  0  0  0  0
 26 27  2  0  0  0  0
 26 47  1  0  0  0  0
 27 28  1  0  0  0  0
 27 48  1  0  0  0  0
 28 49  1  0  0  0  0
 29 50  1  0  0  0  0
 29 51  1  0  0  0  0
M  END
$$$$
