
 OpenBabel07202414203D

 34 36  0  0  0  0  0  0  0  0999 V2000
    1.3506   -1.0559    0.8523 C   0  0  0  0  0  0  0  0  0  0  0  0
    0.5487    0.0376    0.5505 C   0  0  0  0  0  0  0  0  0  0  0  0
   -0.8168   -0.1446    0.3253 C   0  0  0  0  0  0  0  0  0  0  0  0
   -1.4015   -1.4135    0.3903 C   0  0  0  0  0  0  0  0  0  0  0  0
   -0.5912   -2.5076    0.7262 C   0  0  0  0  0  0  0  0  0  0  0  0
    0.7813   -2.3265    0.9392 C   0  0  0  0  0  0  0  0  0  0  0  0
   -2.7808   -1.6408    0.1577 N   0  0  0  0  0  0  0  0  0  0  0  0
   -3.5786   -0.7932   -0.5781 C   0  0  0  0  0  0  0  0  0  0  0  0
   -3.1531    0.2073   -1.1662 O   0  0  0  0  0  0  0  0  0  0  0  0
   -5.0713   -0.9741   -0.5525 C   0  0  0  0  0  0  0  0  0  0  0  0
   -5.8655   -2.2354   -0.7921 C   0  0  0  0  0  0  0  0  0  0  0  0
   -5.3708   -3.5329   -0.7731 C   0  0  0  0  0  0  0  0  0  0  0  0
   -6.1366   -4.6449   -0.8949 N   0  0  0  0  0  0  0  0  0  0  0  0
   -7.4596   -4.4614   -1.0826 C   0  0  0  0  0  0  0  0  0  0  0  0
   -8.0853   -3.2173   -1.1683 C   0  0  0  0  0  0  0  0  0  0  0  0
   -7.2725   -2.0765   -1.0185 C   0  0  0  0  0  0  0  0  0  0  0  0
   -7.9146   -0.8132   -1.1136 C   0  0  0  0  0  0  0  0  0  0  0  0
   -9.2764   -0.6826   -1.3744 C   0  0  0  0  0  0  0  0  0  0  0  0
  -10.0567   -1.8186   -1.5185 C   0  0  0  0  0  0  0  0  0  0  0  0
   -9.4690   -3.0795   -1.4067 C   0  0  0  0  0  0  0  0  0  0  0  0
    2.4156   -0.9164    1.0185 H   0  0  0  0  0  0  0  0  0  0  0  0
    0.9765    1.0353    0.4866 H   0  0  0  0  0  0  0  0  0  0  0  0
   -1.4073    0.7442    0.1175 H   0  0  0  0  0  0  0  0  0  0  0  0
   -0.9978   -3.5125    0.7731 H   0  0  0  0  0  0  0  0  0  0  0  0
    1.4126   -3.1810    1.1681 H   0  0  0  0  0  0  0  0  0  0  0  0
   -3.1492   -2.5294    0.4620 H   0  0  0  0  0  0  0  0  0  0  0  0
   -5.3705   -0.3139   -1.3792 H   0  0  0  0  0  0  0  0  0  0  0  0
   -5.4208   -0.5252    0.3857 H   0  0  0  0  0  0  0  0  0  0  0  0
   -4.3182   -3.7641   -0.6616 H   0  0  0  0  0  0  0  0  0  0  0  0
   -8.0379   -5.3819   -1.1677 H   0  0  0  0  0  0  0  0  0  0  0  0
   -7.3585    0.1152   -1.0041 H   0  0  0  0  0  0  0  0  0  0  0  0
   -9.7144    0.3080   -1.4664 H   0  0  0  0  0  0  0  0  0  0  0  0
  -11.1199   -1.7212   -1.7205 H   0  0  0  0  0  0  0  0  0  0  0  0
  -10.0988   -3.9590   -1.5174 H   0  0  0  0  0  0  0  0  0  0  0  0
  1  2  1  0  0  0  0
  1  6  2  0  0  0  0
  1 21  1  0  0  0  0
  2  3  2  0  0  0  0
  2 22  1  0  0  0  0
  3  4  1  0  0  0  0
  3 23  1  0  0  0  0
  4  5  2  0  0  0  0
  4  7  1  0  0  0  0
  5  6  1  0  0  0  0
  5 24  1  0  0  0  0
  6 25  1  0  0  0  0
  7  8  1  0  0  0  0
  7 26  1  0  0  0  0
  8  9  2  0  0  0  0
  8 10  1  0  0  0  0
 10 11  1  0  0  0  0
 10 27  1  0  0  0  0
 10 28  1  0  0  0  0
 11 12  1  0  0  0  0
 11 16  2  0  0  0  0
 12 13  2  0  0  0  0
 12 29  1  0  0  0  0
 13 14  1  0  0  0  0
 14 15  2  0  0  0  0
 14 30  1  0  0  0  0
 15 16  1  0  0  0  0
 15 20  1  0  0  0  0
 16 17  1  0  0  0  0
 17 18  2  0  0  0  0
 17 31  1  0  0  0  0
 18 19  1  0  0  0  0
 18 32  1  0  0  0  0
 19 20  2  0  0  0  0
 19 33  1  0  0  0  0
 20 34  1  0  0  0  0
M  END
$$$$
