
 OpenBabel07202414143D

 52 55  0  0  1  0  0  0  0  0999 V2000
    8.2216   -0.3304   -0.1427 C   0  0  0  0  0  0  0  0  0  0  0  0
    7.0252    0.3154   -0.6151 N   0  0  0  0  0  0  0  0  0  0  0  0
    5.8479   -0.3872   -0.7186 C   0  0  0  0  0  0  0  0  0  0  0  0
    5.7473   -1.5810   -0.4455 O   0  0  0  0  0  0  0  0  0  0  0  0
    4.6429    0.4383   -1.1475 C   0  0  0  0  0  0  0  0  0  0  0  0
    4.6902    0.9456   -2.5167 N   0  0  0  0  0  0  0  0  0  0  0  0
    4.5841    0.0060   -3.6271 C   0  0  0  0  0  0  0  0  0  0  0  0
    3.6773    0.5430   -4.7535 C   0  0  3  0  0  0  0  0  0  0  0  0
    4.0248   -0.2560   -6.0355 C   0  0  0  0  0  0  0  0  0  0  0  0
    2.1988    0.2565   -4.3875 C   0  0  0  0  0  0  0  0  0  0  0  0
    1.4893   -0.4208   -5.1311 O   0  0  0  0  0  0  0  0  0  0  0  0
    1.7605    0.8339   -3.2072 N   0  0  0  0  0  0  0  0  0  0  0  0
    0.4344    0.7994   -2.6953 C   0  0  0  0  0  0  0  0  0  0  0  0
   -0.5362   -0.0814   -3.1824 C   0  0  0  0  0  0  0  0  0  0  0  0
   -1.8457   -0.0560   -2.8423 N   0  0  0  0  0  0  0  0  0  0  0  0
   -2.2121    0.8801   -1.9474 C   0  0  0  0  0  0  0  0  0  0  0  0
   -1.3294    1.7446   -1.3081 C   0  0  0  0  0  0  0  0  0  0  0  0
   -1.7895    2.6388   -0.3221 C   0  0  0  0  0  0  0  0  0  0  0  0
   -0.9069    3.4862    0.3381 C   0  0  0  0  0  0  0  0  0  0  0  0
    0.4419    3.4646    0.0101 C   0  0  0  0  0  0  0  0  0  0  0  0
    0.9102    2.5950   -0.9850 C   0  0  0  0  0  0  0  0  0  0  0  0
    0.0402    1.7075   -1.6718 C   0  0  0  0  0  0  0  0  0  0  0  0
    3.9362    2.0389   -4.9893 C   0  0  0  0  0  0  0  0  0  0  0  0
    3.3995    2.6976   -6.1124 C   0  0  0  0  0  0  0  0  0  0  0  0
    3.6700    4.0480   -6.3470 C   0  0  0  0  0  0  0  0  0  0  0  0
    2.9933    4.8287   -7.7222 Cl  0  0  0  0  0  0  0  0  0  0  0  0
    4.4791    4.7686   -5.4741 C   0  0  0  0  0  0  0  0  0  0  0  0
    4.9996    4.1439   -4.3407 C   0  0  0  0  0  0  0  0  0  0  0  0
    4.7200    2.7928   -4.0865 C   0  0  0  0  0  0  0  0  0  0  0  0
    5.1407    2.2269   -2.7690 C   0  0  0  0  0  0  0  0  0  0  0  0
    5.7319    2.9030   -1.9363 O   0  0  0  0  0  0  0  0  0  0  0  0
    9.0054    0.4172   -0.0116 H   0  0  0  0  0  0  0  0  0  0  0  0
    8.5323   -1.0802   -0.8749 H   0  0  0  0  0  0  0  0  0  0  0  0
    8.0170   -0.8272    0.8109 H   0  0  0  0  0  0  0  0  0  0  0  0
    7.0426    1.2942   -0.8963 H   0  0  0  0  0  0  0  0  0  0  0  0
    4.5344    1.2795   -0.4525 H   0  0  0  0  0  0  0  0  0  0  0  0
    3.7394   -0.1743   -1.0535 H   0  0  0  0  0  0  0  0  0  0  0  0
    4.2266   -0.9621   -3.2571 H   0  0  0  0  0  0  0  0  0  0  0  0
    5.6082   -0.1409   -3.9998 H   0  0  0  0  0  0  0  0  0  0  0  0
    3.9723   -1.3357   -5.8507 H   0  0  0  0  0  0  0  0  0  0  0  0
    5.0332   -0.0232   -6.3960 H   0  0  0  0  0  0  0  0  0  0  0  0
    3.3284   -0.0461   -6.8564 H   0  0  0  0  0  0  0  0  0  0  0  0
    2.4077    1.4639   -2.7546 H   0  0  0  0  0  0  0  0  0  0  0  0
   -0.2989   -0.8826   -3.8753 H   0  0  0  0  0  0  0  0  0  0  0  0
   -3.2804    0.9066   -1.7441 H   0  0  0  0  0  0  0  0  0  0  0  0
   -2.8449    2.6659   -0.0533 H   0  0  0  0  0  0  0  0  0  0  0  0
   -1.2708    4.1566    1.1135 H   0  0  0  0  0  0  0  0  0  0  0  0
    1.1365    4.1195    0.5266 H   0  0  0  0  0  0  0  0  0  0  0  0
    1.9747    2.6212   -1.1899 H   0  0  0  0  0  0  0  0  0  0  0  0
    2.7600    2.1670   -6.8114 H   0  0  0  0  0  0  0  0  0  0  0  0
    4.6887    5.8202   -5.6562 H   0  0  0  0  0  0  0  0  0  0  0  0
    5.5997    4.7245   -3.6414 H   0  0  0  0  0  0  0  0  0  0  0  0
  1  2  1  0  0  0  0
  1 32  1  0  0  0  0
  1 33  1  0  0  0  0
  1 34  1  0  0  0  0
  2  3  1  0  0  0  0
  2 35  1  0  0  0  0
  3  4  2  0  0  0  0
  3  5  1  0  0  0  0
  5  6  1  0  0  0  0
  5 36  1  0  0  0  0
  5 37  1  0  0  0  0
  6  7  1  0  0  0  0
  6 30  1  0  0  0  0
  7  8  1  0  0  0  0
  7 38  1  0  0  0  0
  7 39  1  0  0  0  0
  8  9  1  0  0  0  0
  8 10  1  0  0  0  0
  8 23  1  0  0  0  0
  9 40  1  0  0  0  0
  9 41  1  0  0  0  0
  9 42  1  0  0  0  0
 10 11  2  0  0  0  0
 10 12  1  0  0  0  0
 12 13  1  0  0  0  0
 12 43  1  0  0  0  0
 13 14  1  0  0  0  0
 13 22  2  0  0  0  0
 14 15  2  0  0  0  0
 14 44  1  0  0  0  0
 15 16  1  0  0  0  0
 16 17  2  0  0  0  0
 16 45  1  0  0  0  0
 17 18  1  0  0  0  0
 17 22  1  0  0  0  0
 18 19  2  0  0  0  0
 18 46  1  0  0  0  0
 19 20  1  0  0  0  0
 19 47  1  0  0  0  0
 20 21  2  0  0  0  0
 20 48  1  0  0  0  0
 21 22  1  0  0  0  0
 21 49  1  0  0  0  0
 23 24  1  0  0  0  0
 23 29  2  0  0  0  0
 24 25  2  0  0  0  0
 24 50  1  0  0  0  0
 25 26  1  0  0  0  0
 25 27  1  0  0  0  0
 27 28  2  0  0  0  0
 27 51  1  0  0  0  0
 28 29  1  0  0  0  0
 28 52  1  0  0  0  0
 29 30  1  0  0  0  0
 30 31  2  0  0  0  0
M  END
$$$$
