
 OpenBabel07202414203D

 33 35  0  0  0  0  0  0  0  0999 V2000
    2.5745    1.6366   -3.8001 C   0  0  0  0  0  0  0  0  0  0  0  0
    2.0550    2.0040   -2.5554 C   0  0  0  0  0  0  0  0  0  0  0  0
    2.9098    2.3113   -1.4849 C   0  0  0  0  0  0  0  0  0  0  0  0
    4.2971    2.2402   -1.6894 C   0  0  0  0  0  0  0  0  0  0  0  0
    4.8090    1.8712   -2.9353 C   0  0  0  0  0  0  0  0  0  0  0  0
    3.9534    1.5693   -3.9905 C   0  0  0  0  0  0  0  0  0  0  0  0
    6.5123    1.7728   -3.1590 Cl  0  0  0  0  0  0  0  0  0  0  0  0
    2.3641    2.6075   -0.1068 C   0  0  0  0  0  0  0  0  0  0  0  0
    1.3445    3.7254   -0.0532 C   0  0  0  0  0  0  0  0  0  0  0  0
    0.1381    3.4883   -0.0307 O   0  0  0  0  0  0  0  0  0  0  0  0
    1.8922    4.9994   -0.0562 N   0  0  0  0  0  0  0  0  0  0  0  0
    1.0581    6.1446   -0.0335 C   0  0  0  0  0  0  0  0  0  0  0  0
    0.0465    6.2665    0.9213 C   0  0  0  0  0  0  0  0  0  0  0  0
   -0.7960    7.3130    0.9946 N   0  0  0  0  0  0  0  0  0  0  0  0
   -0.6506    8.2593    0.0363 C   0  0  0  0  0  0  0  0  0  0  0  0
    0.2976    8.2555   -0.9802 C   0  0  0  0  0  0  0  0  0  0  0  0
    1.2005    7.1710   -0.9965 C   0  0  0  0  0  0  0  0  0  0  0  0
    2.1502    7.1586   -2.0482 C   0  0  0  0  0  0  0  0  0  0  0  0
    2.1425    8.1546   -3.0149 C   0  0  0  0  0  0  0  0  0  0  0  0
    1.2036    9.1600   -2.9095 C   0  0  0  0  0  0  0  0  0  0  0  0
    0.3013    9.2316   -1.9074 N   0  0  0  0  0  0  0  0  0  0  0  0
    1.9010    1.3869   -4.6160 H   0  0  0  0  0  0  0  0  0  0  0  0
    0.9722    2.0236   -2.4215 H   0  0  0  0  0  0  0  0  0  0  0  0
    4.9848    2.4432   -0.8721 H   0  0  0  0  0  0  0  0  0  0  0  0
    4.3529    1.2676   -4.9571 H   0  0  0  0  0  0  0  0  0  0  0  0
    3.1758    2.8559    0.5883 H   0  0  0  0  0  0  0  0  0  0  0  0
    1.8921    1.6978    0.2871 H   0  0  0  0  0  0  0  0  0  0  0  0
    2.7962    5.0794   -0.5069 H   0  0  0  0  0  0  0  0  0  0  0  0
   -0.1028    5.5113    1.6863 H   0  0  0  0  0  0  0  0  0  0  0  0
   -1.3686    9.0747    0.0873 H   0  0  0  0  0  0  0  0  0  0  0  0
    2.8710    6.3554   -2.1505 H   0  0  0  0  0  0  0  0  0  0  0  0
    2.8440    8.1375   -3.8436 H   0  0  0  0  0  0  0  0  0  0  0  0
    1.1375    9.9448   -3.6493 H   0  0  0  0  0  0  0  0  0  0  0  0
  1  2  1  0  0  0  0
  1  6  2  0  0  0  0
  1 22  1  0  0  0  0
  2  3  2  0  0  0  0
  2 23  1  0  0  0  0
  3  4  1  0  0  0  0
  3  8  1  0  0  0  0
  4  5  2  0  0  0  0
  4 24  1  0  0  0  0
  5  6  1  0  0  0  0
  5  7  1  0  0  0  0
  6 25  1  0  0  0  0
  8  9  1  0  0  0  0
  8 26  1  0  0  0  0
  8 27  1  0  0  0  0
  9 10  2  0  0  0  0
  9 11  1  0  0  0  0
 11 12  1  0  0  0  0
 11 28  1  0  0  0  0
 12 13  1  0  0  0  0
 12 17  2  0  0  0  0
 13 14  2  0  0  0  0
 13 29  1  0  0  0  0
 14 15  1  0  0  0  0
 15 16  2  0  0  0  0
 15 30  1  0  0  0  0
 16 17  1  0  0  0  0
 16 21  1  0  0  0  0
 17 18  1  0  0  0  0
 18 19  2  0  0  0  0
 18 31  1  0  0  0  0
 19 20  1  0  0  0  0
 19 32  1  0  0  0  0
 20 21  2  0  0  0  0
 20 33  1  0  0  0  0
M  END
$$$$
