
 OpenBabel07202414153D

 50 53  0  0  1  0  0  0  0  0999 V2000
    6.0294   -0.9600   -1.4537 C   0  0  0  0  0  0  0  0  0  0  0  0
    5.0073   -0.4493   -0.6060 O   0  0  0  0  0  0  0  0  0  0  0  0
    5.5537    0.3254    0.4645 C   0  0  0  0  0  0  0  0  0  0  0  0
    4.4170    0.8727    1.3335 C   0  0  0  0  0  0  0  0  0  0  0  0
    4.9287    1.6750    2.4598 N   0  0  0  0  0  0  0  0  0  0  0  0
    5.1835    0.9713    3.7181 C   0  0  0  0  0  0  0  0  0  0  0  0
    4.6624    1.7658    4.9035 C   0  0  0  0  0  0  0  0  0  0  0  0
    5.2669    3.1686    4.9326 C   0  0  3  0  0  0  0  0  0  0  0  0
    6.7027    3.1322    5.4889 C   0  0  0  0  0  0  0  0  0  0  0  0
    6.9046    3.2187    6.7009 O   0  0  0  0  0  0  0  0  0  0  0  0
    7.6839    2.9253    4.5359 N   0  0  0  0  0  0  0  0  0  0  0  0
    9.0929    2.9582    4.6991 C   0  0  0  0  0  0  0  0  0  0  0  0
    9.7102    3.2163    5.9209 C   0  0  0  0  0  0  0  0  0  0  0  0
   11.0350    3.4517    6.0718 N   0  0  0  0  0  0  0  0  0  0  0  0
   11.7937    3.3586    4.9618 C   0  0  0  0  0  0  0  0  0  0  0  0
   11.3215    2.9571    3.7146 C   0  0  0  0  0  0  0  0  0  0  0  0
   12.2040    2.7258    2.6437 C   0  0  0  0  0  0  0  0  0  0  0  0
   11.7279    2.2969    1.4070 C   0  0  0  0  0  0  0  0  0  0  0  0
   10.3623    2.1327    1.2177 C   0  0  0  0  0  0  0  0  0  0  0  0
    9.4766    2.3686    2.2737 C   0  0  0  0  0  0  0  0  0  0  0  0
    9.9291    2.7641    3.5597 C   0  0  0  0  0  0  0  0  0  0  0  0
    5.1538    3.8352    3.5677 C   0  0  0  0  0  0  0  0  0  0  0  0
    5.2130    5.2366    3.5051 C   0  0  0  0  0  0  0  0  0  0  0  0
    5.1608    5.8856    2.2724 C   0  0  0  0  0  0  0  0  0  0  0  0
    5.2137    7.6061    2.1985 Cl  0  0  0  0  0  0  0  0  0  0  0  0
    5.0697    5.1486    1.1064 C   0  0  0  0  0  0  0  0  0  0  0  0
    4.9949    3.7517    1.1704 C   0  0  0  0  0  0  0  0  0  0  0  0
    5.0201    3.0580    2.3941 C   0  0  0  0  0  0  0  0  0  0  0  0
    5.5610   -1.5531   -2.2439 H   0  0  0  0  0  0  0  0  0  0  0  0
    6.7093   -1.6049   -0.8887 H   0  0  0  0  0  0  0  0  0  0  0  0
    6.5862   -0.1397   -1.9168 H   0  0  0  0  0  0  0  0  0  0  0  0
    6.1466    1.1480    0.0493 H   0  0  0  0  0  0  0  0  0  0  0  0
    6.2142   -0.3060    1.0696 H   0  0  0  0  0  0  0  0  0  0  0  0
    3.8220    0.0297    1.7098 H   0  0  0  0  0  0  0  0  0  0  0  0
    3.7009    1.4356    0.7207 H   0  0  0  0  0  0  0  0  0  0  0  0
    6.2573    0.7755    3.8110 H   0  0  0  0  0  0  0  0  0  0  0  0
    4.6979   -0.0115    3.7190 H   0  0  0  0  0  0  0  0  0  0  0  0
    4.8746    1.2276    5.8347 H   0  0  0  0  0  0  0  0  0  0  0  0
    3.5693    1.8467    4.8217 H   0  0  0  0  0  0  0  0  0  0  0  0
    4.6783    3.7650    5.6422 H   0  0  0  0  0  0  0  0  0  0  0  0
    7.3579    2.8831    3.5785 H   0  0  0  0  0  0  0  0  0  0  0  0
    9.1610    3.2609    6.8555 H   0  0  0  0  0  0  0  0  0  0  0  0
   12.8397    3.6186    5.1127 H   0  0  0  0  0  0  0  0  0  0  0  0
   13.2777    2.8450    2.7789 H   0  0  0  0  0  0  0  0  0  0  0  0
   12.4212    2.0833    0.5987 H   0  0  0  0  0  0  0  0  0  0  0  0
    9.9827    1.8051    0.2529 H   0  0  0  0  0  0  0  0  0  0  0  0
    8.4221    2.1952    2.0718 H   0  0  0  0  0  0  0  0  0  0  0  0
    5.2952    5.8282    4.4138 H   0  0  0  0  0  0  0  0  0  0  0  0
    5.0481    5.6412    0.1349 H   0  0  0  0  0  0  0  0  0  0  0  0
    4.9274    3.2183    0.2262 H   0  0  0  0  0  0  0  0  0  0  0  0
  1  2  1  0  0  0  0
  1 29  1  0  0  0  0
  1 30  1  0  0  0  0
  1 31  1  0  0  0  0
  2  3  1  0  0  0  0
  3  4  1  0  0  0  0
  3 32  1  0  0  0  0
  3 33  1  0  0  0  0
  4  5  1  0  0  0  0
  4 34  1  0  0  0  0
  4 35  1  0  0  0  0
  5  6  1  0  0  0  0
  5 28  1  0  0  0  0
  6  7  1  0  0  0  0
  6 36  1  0  0  0  0
  6 37  1  0  0  0  0
  7  8  1  0  0  0  0
  7 38  1  0  0  0  0
  7 39  1  0  0  0  0
  8  9  1  0  0  0  0
  8 22  1  0  0  0  0
  8 40  1  0  0  0  0
  9 10  2  0  0  0  0
  9 11  1  0  0  0  0
 11 12  1  0  0  0  0
 11 41  1  0  0  0  0
 12 13  1  0  0  0  0
 12 21  2  0  0  0  0
 13 14  2  0  0  0  0
 13 42  1  0  0  0  0
 14 15  1  0  0  0  0
 15 16  2  0  0  0  0
 15 43  1  0  0  0  0
 16 17  1  0  0  0  0
 16 21  1  0  0  0  0
 17 18  2  0  0  0  0
 17 44  1  0  0  0  0
 18 19  1  0  0  0  0
 18 45  1  0  0  0  0
 19 20  2  0  0  0  0
 19 46  1  0  0  0  0
 20 21  1  0  0  0  0
 20 47  1  0  0  0  0
 22 23  1  0  0  0  0
 22 28  2  0  0  0  0
 23 24  2  0  0  0  0
 23 48  1  0  0  0  0
 24 25  1  0  0  0  0
 24 26  1  0  0  0  0
 26 27  2  0  0  0  0
 26 49  1  0  0  0  0
 27 28  1  0  0  0  0
 27 50  1  0  0  0  0
M  END
$$$$
