
 OpenBabel07202414143D

 56 60  0  0  1  0  0  0  0  0999 V2000
    4.2863    1.3313    8.1271 C   0  0  0  0  0  0  0  0  0  0  0  0
    3.7175    2.2449    7.1955 O   0  0  0  0  0  0  0  0  0  0  0  0
    3.6261    1.7381    5.8320 C   0  0  0  0  0  0  0  0  0  0  0  0
    2.6746    0.5679    5.7282 C   0  0  0  0  0  0  0  0  0  0  0  0
    2.4775   -0.0429    4.0731 S   0  0  0  0  0  0  0  0  0  0  0  0
    1.8628    0.9594    3.2295 O   0  0  0  0  0  0  0  0  0  0  0  0
    3.6884   -0.7074    3.6406 O   0  0  0  0  0  0  0  0  0  0  0  0
    1.2713   -1.2259    4.2790 N   0  0  0  0  0  0  0  0  0  0  0  0
   -0.1071   -0.7152    4.5252 C   0  0  0  0  0  0  0  0  0  0  0  0
   -1.1145   -1.5600    3.7518 C   0  0  3  0  0  0  0  0  0  0  0  0
   -1.2296   -1.1127    2.2881 C   0  0  0  0  0  0  0  0  0  0  0  0
   -2.3184   -0.7627    1.8416 O   0  0  0  0  0  0  0  0  0  0  0  0
   -0.0492   -1.1856    1.5776 N   0  0  0  0  0  0  0  0  0  0  0  0
    0.1525   -1.0068    0.1841 C   0  0  0  0  0  0  0  0  0  0  0  0
   -0.8797   -0.6970   -0.6990 C   0  0  0  0  0  0  0  0  0  0  0  0
   -0.7572   -0.6927   -2.0481 N   0  0  0  0  0  0  0  0  0  0  0  0
    0.4695   -0.9672   -2.5417 C   0  0  0  0  0  0  0  0  0  0  0  0
    1.6091   -1.1780   -1.7687 C   0  0  0  0  0  0  0  0  0  0  0  0
    2.8770   -1.3484   -2.3585 C   0  0  0  0  0  0  0  0  0  0  0  0
    4.0136   -1.5223   -1.5734 C   0  0  0  0  0  0  0  0  0  0  0  0
    3.8925   -1.5535   -0.1927 C   0  0  0  0  0  0  0  0  0  0  0  0
    2.6353   -1.4132    0.3969 C   0  0  0  0  0  0  0  0  0  0  0  0
    1.4572   -1.2011   -0.3627 C   0  0  0  0  0  0  0  0  0  0  0  0
   -0.8238   -3.0452    3.8964 C   0  0  0  0  0  0  0  0  0  0  0  0
   -1.8375   -3.9760    3.6053 C   0  0  0  0  0  0  0  0  0  0  0  0
   -1.5930   -5.3448    3.7224 C   0  0  0  0  0  0  0  0  0  0  0  0
   -2.8418   -6.4691    3.3576 Cl  0  0  0  0  0  0  0  0  0  0  0  0
   -0.3442   -5.8067    4.1309 C   0  0  0  0  0  0  0  0  0  0  0  0
    0.6722   -4.8949    4.4268 C   0  0  0  0  0  0  0  0  0  0  0  0
    0.4408   -3.5162    4.3127 C   0  0  0  0  0  0  0  0  0  0  0  0
    1.5775   -2.5799    4.5725 C   0  0  0  0  0  0  0  0  0  0  0  0
    2.6591   -2.9683    4.9779 O   0  0  0  0  0  0  0  0  0  0  0  0
    4.8673    1.9489    4.9906 C   0  0  0  0  0  0  0  0  0  0  0  0
    3.6874    2.8645    4.8160 C   0  0  0  0  0  0  0  0  0  0  0  0
    4.5286    1.8777    9.0415 H   0  0  0  0  0  0  0  0  0  0  0  0
    5.1977    0.8777    7.7277 H   0  0  0  0  0  0  0  0  0  0  0  0
    3.5567    0.5553    8.3769 H   0  0  0  0  0  0  0  0  0  0  0  0
    1.6892    0.8739    6.0901 H   0  0  0  0  0  0  0  0  0  0  0  0
    3.0388   -0.2757    6.3215 H   0  0  0  0  0  0  0  0  0  0  0  0
   -0.2204    0.3438    4.2785 H   0  0  0  0  0  0  0  0  0  0  0  0
   -0.2967   -0.8119    5.6036 H   0  0  0  0  0  0  0  0  0  0  0  0
   -2.0959   -1.3667    4.2085 H   0  0  0  0  0  0  0  0  0  0  0  0
    0.7696   -1.4565    2.1013 H   0  0  0  0  0  0  0  0  0  0  0  0
   -1.8782   -0.4393   -0.3626 H   0  0  0  0  0  0  0  0  0  0  0  0
    0.5139   -1.0025   -3.6280 H   0  0  0  0  0  0  0  0  0  0  0  0
    2.9860   -1.3223   -3.4390 H   0  0  0  0  0  0  0  0  0  0  0  0
    4.9928   -1.6160   -2.0355 H   0  0  0  0  0  0  0  0  0  0  0  0
    4.7710   -1.6749    0.4373 H   0  0  0  0  0  0  0  0  0  0  0  0
    2.6177   -1.4295    1.4790 H   0  0  0  0  0  0  0  0  0  0  0  0
   -2.8201   -3.6337    3.2802 H   0  0  0  0  0  0  0  0  0  0  0  0
   -0.1519   -6.8744    4.2114 H   0  0  0  0  0  0  0  0  0  0  0  0
    1.6496   -5.2686    4.7305 H   0  0  0  0  0  0  0  0  0  0  0  0
    5.1087    1.2836    4.1713 H   0  0  0  0  0  0  0  0  0  0  0  0
    5.7489    2.3667    5.4654 H   0  0  0  0  0  0  0  0  0  0  0  0
    3.1563    2.8223    3.8748 H   0  0  0  0  0  0  0  0  0  0  0  0
    3.7785    3.8807    5.1876 H   0  0  0  0  0  0  0  0  0  0  0  0
  1  2  1  0  0  0  0
  1 35  1  0  0  0  0
  1 36  1  0  0  0  0
  1 37  1  0  0  0  0
  2  3  1  0  0  0  0
  3  4  1  0  0  0  0
  3 33  1  0  0  0  0
  3 34  1  0  0  0  0
  4  5  1  0  0  0  0
  4 38  1  0  0  0  0
  4 39  1  0  0  0  0
  5  6  2  0  0  0  0
  5  7  2  0  0  0  0
  5  8  1  0  0  0  0
  8  9  1  0  0  0  0
  8 31  1  0  0  0  0
  9 10  1  0  0  0  0
  9 40  1  0  0  0  0
  9 41  1  0  0  0  0
 10 11  1  0  0  0  0
 10 24  1  0  0  0  0
 10 42  1  0  0  0  0
 11 12  2  0  0  0  0
 11 13  1  0  0  0  0
 13 14  1  0  0  0  0
 13 43  1  0  0  0  0
 14 15  1  0  0  0  0
 14 23  2  0  0  0  0
 15 16  2  0  0  0  0
 15 44  1  0  0  0  0
 16 17  1  0  0  0  0
 17 18  2  0  0  0  0
 17 45  1  0  0  0  0
 18 19  1  0  0  0  0
 18 23  1  0  0  0  0
 19 20  2  0  0  0  0
 19 46  1  0  0  0  0
 20 21  1  0  0  0  0
 20 47  1  0  0  0  0
 21 22  2  0  0  0  0
 21 48  1  0  0  0  0
 22 23  1  0  0  0  0
 22 49  1  0  0  0  0
 24 25  1  0  0  0  0
 24 30  2  0  0  0  0
 25 26  2  0  0  0  0
 25 50  1  0  0  0  0
 26 27  1  0  0  0  0
 26 28  1  0  0  0  0
 28 29  2  0  0  0  0
 28 51  1  0  0  0  0
 29 30  1  0  0  0  0
 29 52  1  0  0  0  0
 30 31  1  0  0  0  0
 31 32  2  0  0  0  0
 33 34  1  0  0  0  0
 33 53  1  0  0  0  0
 33 54  1  0  0  0  0
 34 55  1  0  0  0  0
 34 56  1  0  0  0  0
M  END
$$$$
