
 OpenBabel07202414183D

 56 60  0  0  1  0  0  0  0  0999 V2000
    8.6978   -2.0546   -5.2341 F   0  0  0  0  0  0  0  0  0  0  0  0
    8.4548   -1.6714   -3.9718 C   0  0  0  0  0  0  0  0  0  0  0  0
    9.4346   -0.9961   -3.2526 C   0  0  0  0  0  0  0  0  0  0  0  0
    9.1632   -0.5962   -1.9424 C   0  0  0  0  0  0  0  0  0  0  0  0
    7.9144   -0.8547   -1.3163 C   0  0  0  0  0  0  0  0  0  0  0  0
    7.5579   -0.4609    0.0065 C   0  0  0  0  0  0  0  0  0  0  0  0
    8.3261    0.4344    0.8070 N   0  0  0  0  0  0  0  0  0  0  0  0
    8.6849    1.6818    0.3049 C   0  0  0  0  0  0  0  0  0  0  0  0
    8.3620    2.0509   -0.8187 O   0  0  0  0  0  0  0  0  0  0  0  0
    9.6070    2.5062    1.2214 C   0  0  3  0  0  0  0  0  0  0  0  0
    9.3408    4.0204    1.2852 C   0  0  0  0  0  0  0  0  0  0  0  0
    9.6622    4.7241    0.0489 N   0  0  0  0  0  0  0  0  0  0  0  0
    8.6016    4.7243   -0.9777 C   0  0  0  0  0  0  0  0  0  0  0  0
    7.9436    5.9634   -1.5592 C   0  0  0  0  0  0  0  0  0  0  0  0
    6.9847    5.8571   -2.3277 O   0  0  0  0  0  0  0  0  0  0  0  0
    8.4201    7.1774   -1.1493 N   0  0  0  0  0  0  0  0  0  0  0  0
    7.7956    8.4096   -1.6515 C   0  0  0  0  0  0  0  0  0  0  0  0
    8.4418    9.7116   -1.1416 C   0  0  0  0  0  0  0  0  0  0  0  0
    7.0156   10.3010   -1.0840 C   0  0  0  0  0  0  0  0  0  0  0  0
    6.5147    8.8532   -0.8941 C   0  0  0  0  0  0  0  0  0  0  0  0
   10.9740    4.5598   -0.4266 C   0  0  0  0  0  0  0  0  0  0  0  0
   11.4473    5.2829   -1.2929 O   0  0  0  0  0  0  0  0  0  0  0  0
   11.7268    3.3506    0.0854 C   0  0  0  0  0  0  0  0  0  0  0  0
   13.0748    3.1645   -0.2446 C   0  0  0  0  0  0  0  0  0  0  0  0
   13.7005    1.9331    0.0020 C   0  0  0  0  0  0  0  0  0  0  0  0
   12.9776    0.8848    0.5666 C   0  0  0  0  0  0  0  0  0  0  0  0
   13.6757   -0.6788    0.7132 Cl  0  0  0  0  0  0  0  0  0  0  0  0
   11.6677    1.0819    0.9822 C   0  0  0  0  0  0  0  0  0  0  0  0
   11.0413    2.3203    0.7696 C   0  0  0  0  0  0  0  0  0  0  0  0
    6.3641   -0.9452    0.5392 C   0  0  0  0  0  0  0  0  0  0  0  0
    5.4659   -1.6828   -0.1464 N   0  0  0  0  0  0  0  0  0  0  0  0
    5.7749   -1.9591   -1.4328 C   0  0  0  0  0  0  0  0  0  0  0  0
    6.9671   -1.5980   -2.0606 C   0  0  0  0  0  0  0  0  0  0  0  0
    7.2300   -1.9738   -3.3900 C   0  0  0  0  0  0  0  0  0  0  0  0
   10.3894   -0.7935   -3.7152 H   0  0  0  0  0  0  0  0  0  0  0  0
    9.9509   -0.0743   -1.4068 H   0  0  0  0  0  0  0  0  0  0  0  0
    8.1483    0.4083    1.8050 H   0  0  0  0  0  0  0  0  0  0  0  0
    9.5092    2.1300    2.2481 H   0  0  0  0  0  0  0  0  0  0  0  0
   10.0105    4.4536    2.0466 H   0  0  0  0  0  0  0  0  0  0  0  0
    8.3233    4.2687    1.6012 H   0  0  0  0  0  0  0  0  0  0  0  0
    7.7407    4.2221   -0.5223 H   0  0  0  0  0  0  0  0  0  0  0  0
    8.9583    4.1388   -1.8322 H   0  0  0  0  0  0  0  0  0  0  0  0
    9.3349    7.1706   -0.7092 H   0  0  0  0  0  0  0  0  0  0  0  0
    7.6619    8.3936   -2.7423 H   0  0  0  0  0  0  0  0  0  0  0  0
    9.1308   10.1934   -1.8388 H   0  0  0  0  0  0  0  0  0  0  0  0
    8.9219    9.6223   -0.1605 H   0  0  0  0  0  0  0  0  0  0  0  0
    6.6881   10.7591   -2.0250 H   0  0  0  0  0  0  0  0  0  0  0  0
    6.8161   10.9906   -0.2612 H   0  0  0  0  0  0  0  0  0  0  0  0
    5.5608    8.6213   -1.3774 H   0  0  0  0  0  0  0  0  0  0  0  0
    6.4637    8.5378    0.1555 H   0  0  0  0  0  0  0  0  0  0  0  0
   13.6383    3.9610   -0.7310 H   0  0  0  0  0  0  0  0  0  0  0  0
   14.7390    1.7834   -0.2837 H   0  0  0  0  0  0  0  0  0  0  0  0
   11.1171    0.2561    1.4289 H   0  0  0  0  0  0  0  0  0  0  0  0
    6.0539   -0.7018    1.5498 H   0  0  0  0  0  0  0  0  0  0  0  0
    5.0109   -2.5226   -1.9642 H   0  0  0  0  0  0  0  0  0  0  0  0
    6.4936   -2.5107   -3.9820 H   0  0  0  0  0  0  0  0  0  0  0  0
  1  2  1  0  0  0  0
  2  3  1  0  0  0  0
  2 34  2  0  0  0  0
  3  4  2  0  0  0  0
  3 35  1  0  0  0  0
  4  5  1  0  0  0  0
  4 36  1  0  0  0  0
  5  6  1  0  0  0  0
  5 33  2  0  0  0  0
  6  7  1  0  0  0  0
  6 30  2  0  0  0  0
  7  8  1  0  0  0  0
  7 37  1  0  0  0  0
  8  9  2  0  0  0  0
  8 10  1  0  0  0  0
 10 11  1  0  0  0  0
 10 29  1  0  0  0  0
 10 38  1  0  0  0  0
 11 12  1  0  0  0  0
 11 39  1  0  0  0  0
 11 40  1  0  0  0  0
 12 13  1  0  0  0  0
 12 21  1  0  0  0  0
 13 14  1  0  0  0  0
 13 41  1  0  0  0  0
 13 42  1  0  0  0  0
 14 15  2  0  0  0  0
 14 16  1  0  0  0  0
 16 17  1  0  0  0  0
 16 43  1  0  0  0  0
 17 18  1  0  0  0  0
 17 20  1  0  0  0  0
 17 44  1  0  0  0  0
 18 19  1  0  0  0  0
 18 45  1  0  0  0  0
 18 46  1  0  0  0  0
 19 20  1  0  0  0  0
 19 47  1  0  0  0  0
 19 48  1  0  0  0  0
 20 49  1  0  0  0  0
 20 50  1  0  0  0  0
 21 22  2  0  0  0  0
 21 23  1  0  0  0  0
 23 24  1  0  0  0  0
 23 29  2  0  0  0  0
 24 25  2  0  0  0  0
 24 51  1  0  0  0  0
 25 26  1  0  0  0  0
 25 52  1  0  0  0  0
 26 27  1  0  0  0  0
 26 28  2  0  0  0  0
 28 29  1  0  0  0  0
 28 53  1  0  0  0  0
 30 31  1  0  0  0  0
 30 54  1  0  0  0  0
 31 32  2  0  0  0  0
 32 33  1  0  0  0  0
 32 55  1  0  0  0  0
 33 34  1  0  0  0  0
 34 56  1  0  0  0  0
M  END
$$$$
