
 OpenBabel07202414203D

 34 36  0  0  0  0  0  0  0  0999 V2000
    3.5732   -0.0318    0.3765 C   0  0  0  0  0  0  0  0  0  0  0  0
    2.6342    0.9578    0.0549 C   0  0  0  0  0  0  0  0  0  0  0  0
    2.0890    1.7839    1.0532 C   0  0  0  0  0  0  0  0  0  0  0  0
    2.5180    1.5945    2.3770 C   0  0  0  0  0  0  0  0  0  0  0  0
    3.4548    0.6002    2.6901 C   0  0  0  0  0  0  0  0  0  0  0  0
    3.9844   -0.2148    1.6948 C   0  0  0  0  0  0  0  0  0  0  0  0
    3.9463    0.3675    4.3235 Cl  0  0  0  0  0  0  0  0  0  0  0  0
    0.9949    2.7782    0.7114 C   0  0  0  0  0  0  0  0  0  0  0  0
    1.4014    3.8703   -0.2814 C   0  0  0  0  0  0  0  0  0  0  0  0
    1.1472    3.8285   -1.4788 O   0  0  0  0  0  0  0  0  0  0  0  0
    2.0647    4.8937    0.3665 N   0  0  0  0  0  0  0  0  0  0  0  0
    2.7534    5.9729   -0.2445 C   0  0  0  0  0  0  0  0  0  0  0  0
    4.1133    5.9855    0.0657 C   0  0  0  0  0  0  0  0  0  0  0  0
    4.7727    7.0684    0.4906 N   0  0  0  0  0  0  0  0  0  0  0  0
    4.0682    8.2228    0.4839 C   0  0  0  0  0  0  0  0  0  0  0  0
    2.8029    8.3908   -0.1000 C   0  0  0  0  0  0  0  0  0  0  0  0
    2.1058    7.2230   -0.4819 C   0  0  0  0  0  0  0  0  0  0  0  0
    0.8224    7.3687   -1.0603 C   0  0  0  0  0  0  0  0  0  0  0  0
    0.2788    8.6348   -1.3034 C   0  0  0  0  0  0  0  0  0  0  0  0
    0.9772    9.7824   -0.9261 C   0  0  0  0  0  0  0  0  0  0  0  0
    2.2200    9.6600   -0.3057 C   0  0  0  0  0  0  0  0  0  0  0  0
    3.0323   11.1296    0.1316 Cl  0  0  0  0  0  0  0  0  0  0  0  0
    3.9717   -0.6742   -0.4093 H   0  0  0  0  0  0  0  0  0  0  0  0
    2.3108    1.0614   -0.9809 H   0  0  0  0  0  0  0  0  0  0  0  0
    2.1094    2.2002    3.1836 H   0  0  0  0  0  0  0  0  0  0  0  0
    4.7006   -0.9971    1.9374 H   0  0  0  0  0  0  0  0  0  0  0  0
    0.6561    3.2735    1.6335 H   0  0  0  0  0  0  0  0  0  0  0  0
    0.1230    2.2476    0.3170 H   0  0  0  0  0  0  0  0  0  0  0  0
    2.5501    4.5523    1.1935 H   0  0  0  0  0  0  0  0  0  0  0  0
    4.6895    5.0640    0.0723 H   0  0  0  0  0  0  0  0  0  0  0  0
    4.5817    9.0420    0.9819 H   0  0  0  0  0  0  0  0  0  0  0  0
    0.2654    6.4926   -1.4013 H   0  0  0  0  0  0  0  0  0  0  0  0
   -0.6818    8.7432   -1.8099 H   0  0  0  0  0  0  0  0  0  0  0  0
    0.5655   10.7680   -1.1337 H   0  0  0  0  0  0  0  0  0  0  0  0
  1  2  1  0  0  0  0
  1  6  2  0  0  0  0
  1 23  1  0  0  0  0
  2  3  2  0  0  0  0
  2 24  1  0  0  0  0
  3  4  1  0  0  0  0
  3  8  1  0  0  0  0
  4  5  2  0  0  0  0
  4 25  1  0  0  0  0
  5  6  1  0  0  0  0
  5  7  1  0  0  0  0
  6 26  1  0  0  0  0
  8  9  1  0  0  0  0
  8 27  1  0  0  0  0
  8 28  1  0  0  0  0
  9 10  2  0  0  0  0
  9 11  1  0  0  0  0
 11 12  1  0  0  0  0
 11 29  1  0  0  0  0
 12 13  1  0  0  0  0
 12 17  2  0  0  0  0
 13 14  2  0  0  0  0
 13 30  1  0  0  0  0
 14 15  1  0  0  0  0
 15 16  2  0  0  0  0
 15 31  1  0  0  0  0
 16 17  1  0  0  0  0
 16 21  1  0  0  0  0
 17 18  1  0  0  0  0
 18 19  2  0  0  0  0
 18 32  1  0  0  0  0
 19 20  1  0  0  0  0
 19 33  1  0  0  0  0
 20 21  2  0  0  0  0
 20 34  1  0  0  0  0
 21 22  1  0  0  0  0
M  END
$$$$
