
 OpenBabel07202414153D

 62 66  0  0  1  0  0  0  0  0999 V2000
    7.4298   -5.1291   -4.0721 C   0  0  0  0  0  0  0  0  0  0  0  0
    7.0117   -4.3860   -2.9367 O   0  0  0  0  0  0  0  0  0  0  0  0
    7.8388   -3.2426   -2.7268 C   0  0  0  0  0  0  0  0  0  0  0  0
    7.4014   -2.4762   -1.4741 C   0  0  0  0  0  0  0  0  0  0  0  0
    7.4758   -3.2862   -0.1984 N   0  0  0  0  0  0  0  0  0  0  0  0
    8.8408   -3.7470    0.1039 C   0  0  0  0  0  0  0  0  0  0  0  0
    6.6876   -2.4490    1.0665 S   0  0  0  0  0  0  0  0  0  0  0  0
    7.3882   -1.1985    1.2062 O   0  0  0  0  0  0  0  0  0  0  0  0
    5.2732   -2.5172    0.8148 O   0  0  0  0  0  0  0  0  0  0  0  0
    7.0702   -3.3968    2.3815 N   0  0  0  0  0  0  0  0  0  0  0  0
    6.4630   -4.7174    2.5617 C   0  0  0  0  0  0  0  0  0  0  0  0
    5.4747   -4.7884    3.7061 C   0  0  0  0  0  0  0  0  0  0  0  0
    4.5462   -5.8445    3.7554 C   0  0  0  0  0  0  0  0  0  0  0  0
    3.6223   -5.9441    4.8013 C   0  0  0  0  0  0  0  0  0  0  0  0
    3.6288   -5.0014    5.8183 C   0  0  0  0  0  0  0  0  0  0  0  0
    2.4934   -5.0927    7.1069 Cl  0  0  0  0  0  0  0  0  0  0  0  0
    4.5536   -3.9661    5.7984 C   0  0  0  0  0  0  0  0  0  0  0  0
    5.4925   -3.8441    4.7502 C   0  0  0  0  0  0  0  0  0  0  0  0
    6.4151   -2.6179    4.6966 C   0  0  3  0  0  0  0  0  0  0  0  0
    7.1661   -2.3989    6.0394 C   0  0  0  0  0  0  0  0  0  0  0  0
    6.7294   -1.0341    6.5135 C   0  0  0  0  0  0  0  0  0  0  0  0
    5.4303   -0.8471    5.9302 N   0  0  0  0  0  0  0  0  0  0  0  0
    4.5093    0.1129    6.4500 C   0  0  0  0  0  0  0  0  0  0  0  0
    3.7660    0.9257    5.5948 C   0  0  0  0  0  0  0  0  0  0  0  0
    3.1105    2.0442    5.9853 N   0  0  0  0  0  0  0  0  0  0  0  0
    3.1031    2.3135    7.3048 C   0  0  0  0  0  0  0  0  0  0  0  0
    3.5909    1.4531    8.2819 C   0  0  0  0  0  0  0  0  0  0  0  0
    3.3403    1.7016    9.6465 C   0  0  0  0  0  0  0  0  0  0  0  0
    3.7810    0.8179   10.6266 C   0  0  0  0  0  0  0  0  0  0  0  0
    4.4614   -0.3294   10.2498 C   0  0  0  0  0  0  0  0  0  0  0  0
    4.6905   -0.5916    8.8927 C   0  0  0  0  0  0  0  0  0  0  0  0
    4.3056    0.3081    7.8583 C   0  0  0  0  0  0  0  0  0  0  0  0
    5.4852   -1.3720    4.6141 C   0  0  0  0  0  0  0  0  0  0  0  0
    4.8192   -1.0447    3.6431 O   0  0  0  0  0  0  0  0  0  0  0  0
    7.5000   -2.7452    3.6211 C   0  0  0  0  0  0  0  0  0  0  0  0
    6.7388   -5.9640   -4.2124 H   0  0  0  0  0  0  0  0  0  0  0  0
    8.4358   -5.5295   -3.9133 H   0  0  0  0  0  0  0  0  0  0  0  0
    7.4117   -4.5028   -4.9691 H   0  0  0  0  0  0  0  0  0  0  0  0
    7.7514   -2.5781   -3.5952 H   0  0  0  0  0  0  0  0  0  0  0  0
    8.8871   -3.5504   -2.6571 H   0  0  0  0  0  0  0  0  0  0  0  0
    6.3659   -2.1472   -1.6254 H   0  0  0  0  0  0  0  0  0  0  0  0
    8.0346   -1.5857   -1.3728 H   0  0  0  0  0  0  0  0  0  0  0  0
    9.2669   -4.2904   -0.7419 H   0  0  0  0  0  0  0  0  0  0  0  0
    8.8250   -4.4745    0.9198 H   0  0  0  0  0  0  0  0  0  0  0  0
    9.5008   -2.9152    0.3599 H   0  0  0  0  0  0  0  0  0  0  0  0
    7.2786   -5.4142    2.8040 H   0  0  0  0  0  0  0  0  0  0  0  0
    6.0195   -5.0825    1.6289 H   0  0  0  0  0  0  0  0  0  0  0  0
    4.5199   -6.5902    2.9630 H   0  0  0  0  0  0  0  0  0  0  0  0
    2.8935   -6.7492    4.8099 H   0  0  0  0  0  0  0  0  0  0  0  0
    4.5097   -3.2260    6.5934 H   0  0  0  0  0  0  0  0  0  0  0  0
    8.2584   -2.4059    5.9354 H   0  0  0  0  0  0  0  0  0  0  0  0
    6.9283   -3.1686    6.7807 H   0  0  0  0  0  0  0  0  0  0  0  0
    7.3861   -0.2628    6.0884 H   0  0  0  0  0  0  0  0  0  0  0  0
    6.7918   -0.9506    7.5952 H   0  0  0  0  0  0  0  0  0  0  0  0
    3.6958    0.7402    4.5284 H   0  0  0  0  0  0  0  0  0  0  0  0
    2.6518    3.2674    7.5657 H   0  0  0  0  0  0  0  0  0  0  0  0
    2.7542    2.5676    9.9503 H   0  0  0  0  0  0  0  0  0  0  0  0
    3.5608    1.0065   11.6747 H   0  0  0  0  0  0  0  0  0  0  0  0
    4.7899   -1.0389   11.0059 H   0  0  0  0  0  0  0  0  0  0  0  0
    5.1284   -1.5559    8.6496 H   0  0  0  0  0  0  0  0  0  0  0  0
    8.2984   -3.4065    3.9991 H   0  0  0  0  0  0  0  0  0  0  0  0
    8.0040   -1.7920    3.4383 H   0  0  0  0  0  0  0  0  0  0  0  0
  1  2  1  0  0  0  0
  1 36  1  0  0  0  0
  1 37  1  0  0  0  0
  1 38  1  0  0  0  0
  2  3  1  0  0  0  0
  3  4  1  0  0  0  0
  3 39  1  0  0  0  0
  3 40  1  0  0  0  0
  4  5  1  0  0  0  0
  4 41  1  0  0  0  0
  4 42  1  0  0  0  0
  5  6  1  0  0  0  0
  5  7  1  0  0  0  0
  6 43  1  0  0  0  0
  6 44  1  0  0  0  0
  6 45  1  0  0  0  0
  7  8  2  0  0  0  0
  7  9  2  0  0  0  0
  7 10  1  0  0  0  0
 10 11  1  0  0  0  0
 10 35  1  0  0  0  0
 11 12  1  0  0  0  0
 11 46  1  0  0  0  0
 11 47  1  0  0  0  0
 12 13  1  0  0  0  0
 12 18  2  0  0  0  0
 13 14  2  0  0  0  0
 13 48  1  0  0  0  0
 14 15  1  0  0  0  0
 14 49  1  0  0  0  0
 15 16  1  0  0  0  0
 15 17  2  0  0  0  0
 17 18  1  0  0  0  0
 17 50  1  0  0  0  0
 18 19  1  0  0  0  0
 19 20  1  0  0  0  0
 19 33  1  0  0  0  0
 19 35  1  0  0  0  0
 20 21  1  0  0  0  0
 20 51  1  0  0  0  0
 20 52  1  0  0  0  0
 21 22  1  0  0  0  0
 21 53  1  0  0  0  0
 21 54  1  0  0  0  0
 22 23  1  0  0  0  0
 22 33  1  0  0  0  0
 23 24  1  0  0  0  0
 23 32  2  0  0  0  0
 24 25  2  0  0  0  0
 24 55  1  0  0  0  0
 25 26  1  0  0  0  0
 26 27  2  0  0  0  0
 26 56  1  0  0  0  0
 27 28  1  0  0  0  0
 27 32  1  0  0  0  0
 28 29  2  0  0  0  0
 28 57  1  0  0  0  0
 29 30  1  0  0  0  0
 29 58  1  0  0  0  0
 30 31  2  0  0  0  0
 30 59  1  0  0  0  0
 31 32  1  0  0  0  0
 31 60  1  0  0  0  0
 33 34  2  0  0  0  0
 35 61  1  0  0  0  0
 35 62  1  0  0  0  0
M  END
$$$$
