
 OpenBabel07202414183D

 40 43  0  0  0  0  0  0  0  0999 V2000
    1.5729    0.8933    0.2140 C   0  0  0  0  0  0  0  0  0  0  0  0
    2.9647    0.5321    0.0670 N   0  0  0  0  0  0  0  0  0  0  0  0
    3.5278   -0.6813   -0.0095 C   0  0  0  0  0  0  0  0  0  0  0  0
    2.8067   -1.9939    0.0859 C   0  0  0  0  0  0  0  0  0  0  0  0
    2.3613   -2.6344   -1.2080 C   0  0  0  0  0  0  0  0  0  0  0  0
    2.9438   -2.3690   -2.4546 C   0  0  0  0  0  0  0  0  0  0  0  0
    2.5204   -3.0592   -3.5965 C   0  0  0  0  0  0  0  0  0  0  0  0
    1.5274   -4.0332   -3.5037 C   0  0  0  0  0  0  0  0  0  0  0  0
    0.9628   -4.3288   -2.2674 C   0  0  0  0  0  0  0  0  0  0  0  0
    1.3805   -3.6386   -1.1299 C   0  0  0  0  0  0  0  0  0  0  0  0
    4.8191   -0.6587   -0.1153 N   0  0  0  0  0  0  0  0  0  0  0  0
    5.1749    0.6605   -0.1022 N   0  0  0  0  0  0  0  0  0  0  0  0
    6.5434    1.0083   -0.0028 C   0  0  0  0  0  0  0  0  0  0  0  0
    6.8983    2.2980    0.4022 C   0  0  0  0  0  0  0  0  0  0  0  0
    8.1608    2.7046    0.6747 N   0  0  0  0  0  0  0  0  0  0  0  0
    9.1371    1.7964    0.4787 C   0  0  0  0  0  0  0  0  0  0  0  0
    8.9405    0.5116   -0.0233 C   0  0  0  0  0  0  0  0  0  0  0  0
   10.0434   -0.3200   -0.3068 C   0  0  0  0  0  0  0  0  0  0  0  0
    9.8683   -1.6010   -0.8229 C   0  0  0  0  0  0  0  0  0  0  0  0
    8.5871   -2.0776   -1.0268 C   0  0  0  0  0  0  0  0  0  0  0  0
    7.4917   -1.2550   -0.7527 C   0  0  0  0  0  0  0  0  0  0  0  0
    7.6144    0.0772   -0.2565 C   0  0  0  0  0  0  0  0  0  0  0  0
    4.0078    1.4469    0.0397 C   0  0  0  0  0  0  0  0  0  0  0  0
    3.8947    2.6635    0.1402 O   0  0  0  0  0  0  0  0  0  0  0  0
    1.0003    0.0692    0.6485 H   0  0  0  0  0  0  0  0  0  0  0  0
    1.1697    1.1250   -0.7739 H   0  0  0  0  0  0  0  0  0  0  0  0
    1.4829    1.7772    0.8517 H   0  0  0  0  0  0  0  0  0  0  0  0
    1.9513   -1.8776    0.7564 H   0  0  0  0  0  0  0  0  0  0  0  0
    3.4963   -2.6994    0.5704 H   0  0  0  0  0  0  0  0  0  0  0  0
    3.7462   -1.6416   -2.5614 H   0  0  0  0  0  0  0  0  0  0  0  0
    2.9765   -2.8469   -4.5607 H   0  0  0  0  0  0  0  0  0  0  0  0
    1.2045   -4.5719   -4.3909 H   0  0  0  0  0  0  0  0  0  0  0  0
    0.2063   -5.1045   -2.1835 H   0  0  0  0  0  0  0  0  0  0  0  0
    0.9472   -3.9045   -0.1676 H   0  0  0  0  0  0  0  0  0  0  0  0
    6.1613    3.0796    0.5607 H   0  0  0  0  0  0  0  0  0  0  0  0
   10.1320    2.1497    0.7397 H   0  0  0  0  0  0  0  0  0  0  0  0
   11.0584    0.0407   -0.1520 H   0  0  0  0  0  0  0  0  0  0  0  0
   10.7252   -2.2202   -1.0710 H   0  0  0  0  0  0  0  0  0  0  0  0
    8.4223   -3.0805   -1.4124 H   0  0  0  0  0  0  0  0  0  0  0  0
    6.5230   -1.6930   -0.9665 H   0  0  0  0  0  0  0  0  0  0  0  0
  1  2  1  0  0  0  0
  1 25  1  0  0  0  0
  1 26  1  0  0  0  0
  1 27  1  0  0  0  0
  2  3  1  0  0  0  0
  2 23  1  0  0  0  0
  3  4  1  0  0  0  0
  3 11  2  0  0  0  0
  4  5  1  0  0  0  0
  4 28  1  0  0  0  0
  4 29  1  0  0  0  0
  5  6  1  0  0  0  0
  5 10  2  0  0  0  0
  6  7  2  0  0  0  0
  6 30  1  0  0  0  0
  7  8  1  0  0  0  0
  7 31  1  0  0  0  0
  8  9  2  0  0  0  0
  8 32  1  0  0  0  0
  9 10  1  0  0  0  0
  9 33  1  0  0  0  0
 10 34  1  0  0  0  0
 11 12  1  0  0  0  0
 12 13  1  0  0  0  0
 12 23  1  0  0  0  0
 13 14  1  0  0  0  0
 13 22  2  0  0  0  0
 14 15  2  0  0  0  0
 14 35  1  0  0  0  0
 15 16  1  0  0  0  0
 16 17  2  0  0  0  0
 16 36  1  0  0  0  0
 17 18  1  0  0  0  0
 17 22  1  0  0  0  0
 18 19  2  0  0  0  0
 18 37  1  0  0  0  0
 19 20  1  0  0  0  0
 19 38  1  0  0  0  0
 20 21  2  0  0  0  0
 20 39  1  0  0  0  0
 21 22  1  0  0  0  0
 21 40  1  0  0  0  0
 23 24  2  0  0  0  0
M  END
$$$$
