
 OpenBabel07202414173D

 50 54  0  0  1  0  0  0  0  0999 V2000
    1.0787   -0.0814   -0.2086 Cl  0  0  0  0  0  0  0  0  0  0  0  0
    2.7959   -0.1232   -0.0820 C   0  0  0  0  0  0  0  0  0  0  0  0
    3.5259    1.0471   -0.1908 C   0  0  0  0  0  0  0  0  0  0  0  0
    4.9187    1.0150   -0.0788 C   0  0  0  0  0  0  0  0  0  0  0  0
    5.6186   -0.1886    0.1470 C   0  0  0  0  0  0  0  0  0  0  0  0
    4.8470   -1.3640    0.2682 C   0  0  0  0  0  0  0  0  0  0  0  0
    3.4414   -1.3294    0.1574 C   0  0  0  0  0  0  0  0  0  0  0  0
    5.5021   -2.6972    0.6123 C   0  0  3  0  0  0  0  0  0  0  0  0
    5.4059   -3.0770    2.1070 C   0  0  0  0  0  0  0  0  0  0  0  0
    5.4414   -4.2585    2.4528 O   0  0  0  0  0  0  0  0  0  0  0  0
    5.3702   -1.9999    2.9698 N   0  0  0  0  0  0  0  0  0  0  0  0
    5.1479   -1.9687    4.3635 C   0  0  0  0  0  0  0  0  0  0  0  0
    4.9159   -3.1145    5.1232 C   0  0  0  0  0  0  0  0  0  0  0  0
    4.4609   -3.0875    6.3985 N   0  0  0  0  0  0  0  0  0  0  0  0
    4.3072   -1.8723    6.9615 C   0  0  0  0  0  0  0  0  0  0  0  0
    4.6854   -0.6699    6.3643 C   0  0  0  0  0  0  0  0  0  0  0  0
    4.6718    0.5441    7.0775 C   0  0  0  0  0  0  0  0  0  0  0  0
    5.0666    1.7342    6.4706 C   0  0  0  0  0  0  0  0  0  0  0  0
    5.4342    1.7328    5.1323 C   0  0  0  0  0  0  0  0  0  0  0  0
    5.4446    0.5336    4.4148 C   0  0  0  0  0  0  0  0  0  0  0  0
    5.0934   -0.7074    5.0178 C   0  0  0  0  0  0  0  0  0  0  0  0
    6.9520   -2.6888    0.1408 C   0  0  0  0  0  0  0  0  0  0  0  0
    7.6806   -1.4648    0.6679 C   0  0  0  0  0  0  0  0  0  0  0  0
    7.0023   -0.2195    0.2784 N   0  0  0  0  0  0  0  0  0  0  0  0
    7.8452    0.8475   -0.3169 C   0  0  0  0  0  0  0  0  0  0  0  0
    8.3353    1.9128    0.6254 C   0  0  0  0  0  0  0  0  0  0  0  0
    8.6022    3.1731    0.3277 N   0  0  0  0  0  0  0  0  0  0  0  0
    9.1046    3.7220    1.4789 C   0  0  0  0  0  0  0  0  0  0  0  0
    9.1328    2.7929    2.4959 C   0  0  0  0  0  0  0  0  0  0  0  0
    8.6249    1.6542    1.9420 N   0  0  0  0  0  0  0  0  0  0  0  0
    3.0245    2.0000   -0.3619 H   0  0  0  0  0  0  0  0  0  0  0  0
    5.4466    1.9638   -0.1467 H   0  0  0  0  0  0  0  0  0  0  0  0
    2.8565   -2.2412    0.2623 H   0  0  0  0  0  0  0  0  0  0  0  0
    4.9723   -3.4850    0.0599 H   0  0  0  0  0  0  0  0  0  0  0  0
    5.3266   -1.0946    2.5220 H   0  0  0  0  0  0  0  0  0  0  0  0
    5.0612   -4.1135    4.7329 H   0  0  0  0  0  0  0  0  0  0  0  0
    3.8602   -1.8918    7.9545 H   0  0  0  0  0  0  0  0  0  0  0  0
    4.3869    0.5608    8.1298 H   0  0  0  0  0  0  0  0  0  0  0  0
    5.0884    2.6573    7.0396 H   0  0  0  0  0  0  0  0  0  0  0  0
    5.7263    2.6595    4.6435 H   0  0  0  0  0  0  0  0  0  0  0  0
    5.7644    0.5956    3.3783 H   0  0  0  0  0  0  0  0  0  0  0  0
    6.9781   -2.6780   -0.9583 H   0  0  0  0  0  0  0  0  0  0  0  0
    7.4727   -3.5979    0.4660 H   0  0  0  0  0  0  0  0  0  0  0  0
    8.7104   -1.4816    0.2983 H   0  0  0  0  0  0  0  0  0  0  0  0
    7.7523   -1.4958    1.7604 H   0  0  0  0  0  0  0  0  0  0  0  0
    7.3288    1.3255   -1.1610 H   0  0  0  0  0  0  0  0  0  0  0  0
    8.7301    0.3923   -0.7789 H   0  0  0  0  0  0  0  0  0  0  0  0
    9.4240    4.7603    1.5133 H   0  0  0  0  0  0  0  0  0  0  0  0
    9.4708    2.8450    3.5129 H   0  0  0  0  0  0  0  0  0  0  0  0
    8.4907    0.7671    2.4009 H   0  0  0  0  0  0  0  0  0  0  0  0
  1  2  1  0  0  0  0
  2  3  1  0  0  0  0
  2  7  2  0  0  0  0
  3  4  2  0  0  0  0
  3 31  1  0  0  0  0
  4  5  1  0  0  0  0
  4 32  1  0  0  0  0
  5  6  2  0  0  0  0
  5 24  1  0  0  0  0
  6  7  1  0  0  0  0
  6  8  1  0  0  0  0
  7 33  1  0  0  0  0
  8  9  1  0  0  0  0
  8 22  1  0  0  0  0
  8 34  1  0  0  0  0
  9 10  2  0  0  0  0
  9 11  1  0  0  0  0
 11 12  1  0  0  0  0
 11 35  1  0  0  0  0
 12 13  1  0  0  0  0
 12 21  2  0  0  0  0
 13 14  2  0  0  0  0
 13 36  1  0  0  0  0
 14 15  1  0  0  0  0
 15 16  2  0  0  0  0
 15 37  1  0  0  0  0
 16 17  1  0  0  0  0
 16 21  1  0  0  0  0
 17 18  2  0  0  0  0
 17 38  1  0  0  0  0
 18 19  1  0  0  0  0
 18 39  1  0  0  0  0
 19 20  2  0  0  0  0
 19 40  1  0  0  0  0
 20 21  1  0  0  0  0
 20 41  1  0  0  0  0
 22 23  1  0  0  0  0
 22 42  1  0  0  0  0
 22 43  1  0  0  0  0
 23 24  1  0  0  0  0
 23 44  1  0  0  0  0
 23 45  1  0  0  0  0
 24 25  1  0  0  0  0
 25 26  1  0  0  0  0
 25 46  1  0  0  0  0
 25 47  1  0  0  0  0
 26 27  2  0  0  0  0
 26 30  1  0  0  0  0
 27 28  1  0  0  0  0
 28 29  2  0  0  0  0
 28 48  1  0  0  0  0
 29 30  1  0  0  0  0
 29 49  1  0  0  0  0
 30 50  1  0  0  0  0
M  END
$$$$
