
 OpenBabel07202414203D

 28 29  0  0  1  0  0  0  0  0999 V2000
    1.9469   -1.0761   -1.4331 C   0  0  0  0  0  0  0  0  0  0  0  0
    2.4076    0.2348   -1.2769 C   0  0  0  0  0  0  0  0  0  0  0  0
    1.7332    1.1453   -0.4451 C   0  0  0  0  0  0  0  0  0  0  0  0
    0.5872    0.7006    0.2317 C   0  0  0  0  0  0  0  0  0  0  0  0
    0.1312   -0.6106    0.0733 C   0  0  0  0  0  0  0  0  0  0  0  0
    0.8083   -1.5018   -0.7530 C   0  0  0  0  0  0  0  0  0  0  0  0
   -1.2714   -1.1334    0.9240 Cl  0  0  0  0  0  0  0  0  0  0  0  0
    2.3154    2.5322   -0.2425 C   0  0  0  0  0  0  0  0  0  0  0  0
    1.3016    3.6695   -0.0040 C   0  0  3  0  0  0  0  0  0  0  0  0
    2.0173    4.9998    0.2696 C   0  0  0  0  0  0  0  0  0  0  0  0
    1.1507    6.1070    0.6264 N   0  0  0  0  0  0  0  0  0  0  0  0
   -0.2076    6.1774    0.6756 C   0  0  0  0  0  0  0  0  0  0  0  0
   -0.5768    7.3892    1.0222 N   0  0  0  0  0  0  0  0  0  0  0  0
    0.6113    8.0393    1.1646 C   0  0  0  0  0  0  0  0  0  0  0  0
    1.7003    7.2970    0.9408 N   0  0  0  0  0  0  0  0  0  0  0  0
    0.4544    3.8039   -1.1506 O   0  0  0  0  0  0  0  0  0  0  0  0
    2.4821   -1.7682   -2.0788 H   0  0  0  0  0  0  0  0  0  0  0  0
    3.3073    0.5368   -1.8102 H   0  0  0  0  0  0  0  0  0  0  0  0
    0.0344    1.3611    0.8930 H   0  0  0  0  0  0  0  0  0  0  0  0
    0.4588   -2.5244   -0.8655 H   0  0  0  0  0  0  0  0  0  0  0  0
    2.9075    2.7861   -1.1323 H   0  0  0  0  0  0  0  0  0  0  0  0
    3.0096    2.4732    0.6050 H   0  0  0  0  0  0  0  0  0  0  0  0
    0.6623    3.4342    0.8530 H   0  0  0  0  0  0  0  0  0  0  0  0
    2.5695    5.3261   -0.6201 H   0  0  0  0  0  0  0  0  0  0  0  0
    2.7244    4.8841    1.1000 H   0  0  0  0  0  0  0  0  0  0  0  0
   -0.8699    5.3524    0.4513 H   0  0  0  0  0  0  0  0  0  0  0  0
    0.6860    9.0850    1.4350 H   0  0  0  0  0  0  0  0  0  0  0  0
    1.0067    3.8942   -1.9478 H   0  0  0  0  0  0  0  0  0  0  0  0
  1  2  1  0  0  0  0
  1  6  2  0  0  0  0
  1 17  1  0  0  0  0
  2  3  2  0  0  0  0
  2 18  1  0  0  0  0
  3  4  1  0  0  0  0
  3  8  1  0  0  0  0
  4  5  2  0  0  0  0
  4 19  1  0  0  0  0
  5  6  1  0  0  0  0
  5  7  1  0  0  0  0
  6 20  1  0  0  0  0
  8  9  1  0  0  0  0
  8 21  1  0  0  0  0
  8 22  1  0  0  0  0
  9 10  1  0  0  0  0
  9 16  1  0  0  0  0
  9 23  1  0  0  0  0
 10 11  1  0  0  0  0
 10 24  1  0  0  0  0
 10 25  1  0  0  0  0
 11 12  1  0  0  0  0
 11 15  1  0  0  0  0
 12 13  2  0  0  0  0
 12 26  1  0  0  0  0
 13 14  1  0  0  0  0
 14 15  2  0  0  0  0
 14 27  1  0  0  0  0
 16 28  1  0  0  0  0
M  END
$$$$
