
 OpenBabel07202414143D

 57 61  0  0  1  0  0  0  0  0999 V2000
    7.7225   -1.7608    0.0641 C   0  0  0  0  0  0  0  0  0  0  0  0
    6.5579   -1.3573    0.8077 N   0  0  0  0  0  0  0  0  0  0  0  0
    5.8850   -0.1951    0.5056 C   0  0  0  0  0  0  0  0  0  0  0  0
    6.2585    0.5924   -0.3614 O   0  0  0  0  0  0  0  0  0  0  0  0
    4.5856    0.0148    1.2863 C   0  0  0  0  0  0  0  0  0  0  0  0
    4.7529    0.1765    2.7291 N   0  0  0  0  0  0  0  0  0  0  0  0
    5.2843    1.4373    3.2235 C   0  0  0  0  0  0  0  0  0  0  0  0
    4.7821    1.8393    4.6172 C   0  0  3  0  0  0  0  0  0  0  0  0
    5.7396    2.9067    5.2028 C   0  0  0  0  0  0  0  0  0  0  0  0
    4.8736    4.1095    5.5178 C   0  0  0  0  0  0  0  0  0  0  0  0
    3.5195    3.6162    5.5273 N   0  0  0  0  0  0  0  0  0  0  0  0
    2.4454    4.3931    6.0533 C   0  0  0  0  0  0  0  0  0  0  0  0
    1.2614    4.5641    5.3359 C   0  0  0  0  0  0  0  0  0  0  0  0
    0.2705    5.4198    5.6849 N   0  0  0  0  0  0  0  0  0  0  0  0
    0.4282    6.0924    6.8440 C   0  0  0  0  0  0  0  0  0  0  0  0
    1.4924    5.9108    7.7231 C   0  0  0  0  0  0  0  0  0  0  0  0
    1.5224    6.5560    8.9763 C   0  0  0  0  0  0  0  0  0  0  0  0
    2.5759    6.3426    9.8635 C   0  0  0  0  0  0  0  0  0  0  0  0
    3.6056    5.4863    9.5086 C   0  0  0  0  0  0  0  0  0  0  0  0
    4.6272    5.3415   10.4087 O   0  0  0  0  0  0  0  0  0  0  0  0
    5.9136    5.2233    9.8000 C   0  0  0  0  0  0  0  0  0  0  0  0
    3.5399    4.7940    8.2972 C   0  0  0  0  0  0  0  0  0  0  0  0
    2.5260    5.0287    7.3331 C   0  0  0  0  0  0  0  0  0  0  0  0
    3.4240    2.5653    4.5959 C   0  0  0  0  0  0  0  0  0  0  0  0
    2.4285    2.1767    4.0066 O   0  0  0  0  0  0  0  0  0  0  0  0
    4.6337    0.6212    5.5328 C   0  0  0  0  0  0  0  0  0  0  0  0
    4.3360    0.7859    6.9042 C   0  0  0  0  0  0  0  0  0  0  0  0
    4.0759   -0.3099    7.7269 C   0  0  0  0  0  0  0  0  0  0  0  0
    3.6367   -0.0505    9.3684 Cl  0  0  0  0  0  0  0  0  0  0  0  0
    4.1391   -1.5976    7.2122 C   0  0  0  0  0  0  0  0  0  0  0  0
    4.4338   -1.7869    5.8599 C   0  0  0  0  0  0  0  0  0  0  0  0
    4.6559   -0.6848    5.0109 C   0  0  0  0  0  0  0  0  0  0  0  0
    4.7592   -0.9401    3.5408 C   0  0  0  0  0  0  0  0  0  0  0  0
    4.8108   -2.0837    3.0958 O   0  0  0  0  0  0  0  0  0  0  0  0
    8.0316   -2.7554    0.3925 H   0  0  0  0  0  0  0  0  0  0  0  0
    8.5266   -1.0410    0.2395 H   0  0  0  0  0  0  0  0  0  0  0  0
    7.4860   -1.7790   -1.0043 H   0  0  0  0  0  0  0  0  0  0  0  0
    6.1528   -1.9809    1.5066 H   0  0  0  0  0  0  0  0  0  0  0  0
    3.9322   -0.8439    1.0916 H   0  0  0  0  0  0  0  0  0  0  0  0
    4.0786    0.9048    0.8995 H   0  0  0  0  0  0  0  0  0  0  0  0
    5.0819    2.2298    2.4936 H   0  0  0  0  0  0  0  0  0  0  0  0
    6.3741    1.2915    3.2549 H   0  0  0  0  0  0  0  0  0  0  0  0
    6.5259    3.2090    4.5009 H   0  0  0  0  0  0  0  0  0  0  0  0
    6.2551    2.5563    6.1018 H   0  0  0  0  0  0  0  0  0  0  0  0
    4.9442    4.8452    4.7068 H   0  0  0  0  0  0  0  0  0  0  0  0
    5.2028    4.6013    6.4291 H   0  0  0  0  0  0  0  0  0  0  0  0
    1.0693    4.0462    4.4009 H   0  0  0  0  0  0  0  0  0  0  0  0
   -0.3705    6.7960    7.0654 H   0  0  0  0  0  0  0  0  0  0  0  0
    0.7114    7.2153    9.2784 H   0  0  0  0  0  0  0  0  0  0  0  0
    2.5872    6.8370   10.8316 H   0  0  0  0  0  0  0  0  0  0  0  0
    6.6702    5.4536   10.5554 H   0  0  0  0  0  0  0  0  0  0  0  0
    6.0412    5.9341    8.9742 H   0  0  0  0  0  0  0  0  0  0  0  0
    6.0852    4.1987    9.4543 H   0  0  0  0  0  0  0  0  0  0  0  0
    4.2700    4.0125    8.1266 H   0  0  0  0  0  0  0  0  0  0  0  0
    4.2368    1.7771    7.3370 H   0  0  0  0  0  0  0  0  0  0  0  0
    3.9215   -2.4544    7.8449 H   0  0  0  0  0  0  0  0  0  0  0  0
    4.4329   -2.7968    5.4530 H   0  0  0  0  0  0  0  0  0  0  0  0
  1  2  1  0  0  0  0
  1 35  1  0  0  0  0
  1 36  1  0  0  0  0
  1 37  1  0  0  0  0
  2  3  1  0  0  0  0
  2 38  1  0  0  0  0
  3  4  2  0  0  0  0
  3  5  1  0  0  0  0
  5  6  1  0  0  0  0
  5 39  1  0  0  0  0
  5 40  1  0  0  0  0
  6  7  1  0  0  0  0
  6 33  1  0  0  0  0
  7  8  1  0  0  0  0
  7 41  1  0  0  0  0
  7 42  1  0  0  0  0
  8  9  1  0  0  0  0
  8 24  1  0  0  0  0
  8 26  1  0  0  0  0
  9 10  1  0  0  0  0
  9 43  1  0  0  0  0
  9 44  1  0  0  0  0
 10 11  1  0  0  0  0
 10 45  1  0  0  0  0
 10 46  1  0  0  0  0
 11 12  1  0  0  0  0
 11 24  1  0  0  0  0
 12 13  1  0  0  0  0
 12 23  2  0  0  0  0
 13 14  2  0  0  0  0
 13 47  1  0  0  0  0
 14 15  1  0  0  0  0
 15 16  2  0  0  0  0
 15 48  1  0  0  0  0
 16 17  1  0  0  0  0
 16 23  1  0  0  0  0
 17 18  2  0  0  0  0
 17 49  1  0  0  0  0
 18 19  1  0  0  0  0
 18 50  1  0  0  0  0
 19 20  1  0  0  0  0
 19 22  2  0  0  0  0
 20 21  1  0  0  0  0
 21 51  1  0  0  0  0
 21 52  1  0  0  0  0
 21 53  1  0  0  0  0
 22 23  1  0  0  0  0
 22 54  1  0  0  0  0
 24 25  2  0  0  0  0
 26 27  1  0  0  0  0
 26 32  2  0  0  0  0
 27 28  2  0  0  0  0
 27 55  1  0  0  0  0
 28 29  1  0  0  0  0
 28 30  1  0  0  0  0
 30 31  2  0  0  0  0
 30 56  1  0  0  0  0
 31 32  1  0  0  0  0
 31 57  1  0  0  0  0
 32 33  1  0  0  0  0
 33 34  2  0  0  0  0
M  END
$$$$
