
 OpenBabel07202414203D

 35 36  0  0  0  0  0  0  0  0999 V2000
    5.5216   -0.6479   -0.1610 C   0  0  0  0  0  0  0  0  0  0  0  0
    4.1514   -0.8996   -0.0266 C   0  0  0  0  0  0  0  0  0  0  0  0
    3.6831   -2.1940    0.2507 C   0  0  0  0  0  0  0  0  0  0  0  0
    4.6136   -3.2447    0.3064 C   0  0  0  0  0  0  0  0  0  0  0  0
    5.9936   -2.9875    0.2185 C   0  0  0  0  0  0  0  0  0  0  0  0
    6.4440   -1.6834   -0.0048 C   0  0  0  0  0  0  0  0  0  0  0  0
    6.9366   -4.0381    0.4488 C   0  0  0  0  0  0  0  0  0  0  0  0
    7.7125   -4.8805    0.6760 N   0  0  0  0  0  0  0  0  0  0  0  0
    2.2280   -2.4344    0.6448 C   0  0  0  0  0  0  0  0  0  0  0  0
    1.5070   -3.3812   -0.2120 N   0  0  0  0  0  0  0  0  0  0  0  0
    1.2522   -2.8781   -1.5669 C   0  0  0  0  0  0  0  0  0  0  0  0
    0.1962   -1.7666   -1.6490 C   0  0  0  0  0  0  0  0  0  0  0  0
   -1.0783   -2.1226   -1.0250 N   0  0  0  0  0  0  0  0  0  0  0  0
   -1.0307   -2.9437    0.1899 C   0  0  0  0  0  0  0  0  0  0  0  0
    0.2241   -3.8356    0.3691 C   0  0  0  0  0  0  0  0  0  0  0  0
   -2.2659   -1.4092   -1.2617 C   0  0  0  0  0  0  0  0  0  0  0  0
   -3.2959   -1.6645   -0.6361 O   0  0  0  0  0  0  0  0  0  0  0  0
   -2.1842   -0.2947   -2.3032 C   0  0  0  0  0  0  0  0  0  0  0  0
   -3.7392    0.5271   -2.5400 Cl  0  0  0  0  0  0  0  0  0  0  0  0
    5.8767    0.3657   -0.3427 H   0  0  0  0  0  0  0  0  0  0  0  0
    3.4598   -0.0644   -0.0958 H   0  0  0  0  0  0  0  0  0  0  0  0
    4.2652   -4.2627    0.4794 H   0  0  0  0  0  0  0  0  0  0  0  0
    7.5093   -1.4635   -0.0354 H   0  0  0  0  0  0  0  0  0  0  0  0
    1.6977   -1.4790    0.7428 H   0  0  0  0  0  0  0  0  0  0  0  0
    2.2824   -2.8449    1.6633 H   0  0  0  0  0  0  0  0  0  0  0  0
    0.9051   -3.7260   -2.1727 H   0  0  0  0  0  0  0  0  0  0  0  0
    2.1791   -2.5409   -2.0420 H   0  0  0  0  0  0  0  0  0  0  0  0
    0.0208   -1.5469   -2.7058 H   0  0  0  0  0  0  0  0  0  0  0  0
    0.5501   -0.8440   -1.1761 H   0  0  0  0  0  0  0  0  0  0  0  0
   -1.9196   -3.5900    0.1890 H   0  0  0  0  0  0  0  0  0  0  0  0
   -1.1352   -2.2660    1.0460 H   0  0  0  0  0  0  0  0  0  0  0  0
   -0.0010   -4.7975   -0.1104 H   0  0  0  0  0  0  0  0  0  0  0  0
    0.3400   -4.0823    1.4329 H   0  0  0  0  0  0  0  0  0  0  0  0
   -1.8845   -0.6997   -3.2716 H   0  0  0  0  0  0  0  0  0  0  0  0
   -1.4672    0.4602   -1.9675 H   0  0  0  0  0  0  0  0  0  0  0  0
  1  2  1  0  0  0  0
  1  6  2  0  0  0  0
  1 20  1  0  0  0  0
  2  3  2  0  0  0  0
  2 21  1  0  0  0  0
  3  4  1  0  0  0  0
  3  9  1  0  0  0  0
  4  5  2  0  0  0  0
  4 22  1  0  0  0  0
  5  6  1  0  0  0  0
  5  7  1  0  0  0  0
  6 23  1  0  0  0  0
  7  8  3  0  0  0  0
  9 10  1  0  0  0  0
  9 24  1  0  0  0  0
  9 25  1  0  0  0  0
 10 11  1  0  0  0  0
 10 15  1  0  0  0  0
 11 12  1  0  0  0  0
 11 26  1  0  0  0  0
 11 27  1  0  0  0  0
 12 13  1  0  0  0  0
 12 28  1  0  0  0  0
 12 29  1  0  0  0  0
 13 14  1  0  0  0  0
 13 16  1  0  0  0  0
 14 15  1  0  0  0  0
 14 30  1  0  0  0  0
 14 31  1  0  0  0  0
 15 32  1  0  0  0  0
 15 33  1  0  0  0  0
 16 17  2  0  0  0  0
 16 18  1  0  0  0  0
 18 19  1  0  0  0  0
 18 34  1  0  0  0  0
 18 35  1  0  0  0  0
M  END
$$$$
