
 OpenBabel07202414133D

 51 54  0  0  1  0  0  0  0  0999 V2000
    1.9609   -1.3630    0.2095 C   0  0  0  0  0  0  0  0  0  0  0  0
    2.2691    0.1037   -0.0822 C   0  0  0  0  0  0  0  0  0  0  0  0
    2.6985    0.4539   -1.5455 C   0  0  3  0  0  0  0  0  0  0  0  0
    1.5127    0.2166   -2.5502 C   0  0  0  0  0  0  0  0  0  0  0  0
    0.4189   -0.1906   -2.1651 O   0  0  0  0  0  0  0  0  0  0  0  0
    1.8028    0.4825   -3.8826 N   0  0  0  0  0  0  0  0  0  0  0  0
    0.9227    0.3807   -5.0065 C   0  0  0  0  0  0  0  0  0  0  0  0
   -0.4129   -0.0037   -4.9147 C   0  0  0  0  0  0  0  0  0  0  0  0
   -1.3241    0.1631   -5.9066 N   0  0  0  0  0  0  0  0  0  0  0  0
   -0.8702    0.6241   -7.0889 C   0  0  0  0  0  0  0  0  0  0  0  0
    0.4815    0.7878   -7.3822 C   0  0  0  0  0  0  0  0  0  0  0  0
    0.9200    0.9934   -8.7107 C   0  0  0  0  0  0  0  0  0  0  0  0
    2.2750    1.1079   -9.0029 C   0  0  0  0  0  0  0  0  0  0  0  0
    3.1910    1.0800   -7.9468 C   0  0  0  0  0  0  0  0  0  0  0  0
    4.9267    1.2635   -8.2738 S   0  0  0  0  0  0  0  0  0  0  0  0
    5.4963   -0.4138   -8.3750 C   0  0  0  0  0  0  0  0  0  0  0  0
    5.0762    1.8835   -9.5638 O   0  0  0  0  0  0  0  0  0  0  0  0
    5.5147    1.8618   -7.0767 O   0  0  0  0  0  0  0  0  0  0  0  0
    2.7617    0.9194   -6.6264 C   0  0  0  0  0  0  0  0  0  0  0  0
    1.4033    0.7069   -6.3119 C   0  0  0  0  0  0  0  0  0  0  0  0
    3.8879   -0.4268   -1.9930 C   0  0  0  0  0  0  0  0  0  0  0  0
    5.0958   -0.1423   -1.2534 N   0  0  0  0  0  0  0  0  0  0  0  0
    5.5404    1.1447   -1.0672 C   0  0  0  0  0  0  0  0  0  0  0  0
    6.6915    1.3765   -0.7144 O   0  0  0  0  0  0  0  0  0  0  0  0
    4.5397    2.2283   -1.2792 C   0  0  0  0  0  0  0  0  0  0  0  0
    4.9739    3.5549   -1.1379 C   0  0  0  0  0  0  0  0  0  0  0  0
    4.0532    4.5982   -1.1600 C   0  0  0  0  0  0  0  0  0  0  0  0
    2.6978    4.3152   -1.3185 C   0  0  0  0  0  0  0  0  0  0  0  0
    1.5526    5.5963   -1.2345 Cl  0  0  0  0  0  0  0  0  0  0  0  0
    2.2561    2.9971   -1.4997 C   0  0  0  0  0  0  0  0  0  0  0  0
    3.1707    1.9279   -1.4987 C   0  0  0  0  0  0  0  0  0  0  0  0
    1.5428   -1.4535    1.2180 H   0  0  0  0  0  0  0  0  0  0  0  0
    2.8654   -1.9772    0.1796 H   0  0  0  0  0  0  0  0  0  0  0  0
    1.2334   -1.7858   -0.4865 H   0  0  0  0  0  0  0  0  0  0  0  0
    3.0597    0.4054    0.6198 H   0  0  0  0  0  0  0  0  0  0  0  0
    1.3892    0.6993    0.1932 H   0  0  0  0  0  0  0  0  0  0  0  0
    2.6636    0.9830   -4.0577 H   0  0  0  0  0  0  0  0  0  0  0  0
   -0.8339   -0.4604   -4.0256 H   0  0  0  0  0  0  0  0  0  0  0  0
   -1.6422    0.8475   -7.8169 H   0  0  0  0  0  0  0  0  0  0  0  0
    0.2052    1.0119   -9.5300 H   0  0  0  0  0  0  0  0  0  0  0  0
    2.6074    1.2029  -10.0290 H   0  0  0  0  0  0  0  0  0  0  0  0
    4.9775   -0.9140   -9.1957 H   0  0  0  0  0  0  0  0  0  0  0  0
    5.3020   -0.9178   -7.4278 H   0  0  0  0  0  0  0  0  0  0  0  0
    6.5695   -0.3955   -8.5698 H   0  0  0  0  0  0  0  0  0  0  0  0
    3.5239    0.8998   -5.8480 H   0  0  0  0  0  0  0  0  0  0  0  0
    4.1438   -0.2578   -3.0439 H   0  0  0  0  0  0  0  0  0  0  0  0
    3.6757   -1.4963   -1.8927 H   0  0  0  0  0  0  0  0  0  0  0  0
    5.8075   -0.8517   -1.1206 H   0  0  0  0  0  0  0  0  0  0  0  0
    6.0268    3.7726   -0.9634 H   0  0  0  0  0  0  0  0  0  0  0  0
    4.3928    5.6219   -1.0130 H   0  0  0  0  0  0  0  0  0  0  0  0
    1.1846    2.8129   -1.5825 H   0  0  0  0  0  0  0  0  0  0  0  0
  1  2  1  0  0  0  0
  1 32  1  0  0  0  0
  1 33  1  0  0  0  0
  1 34  1  0  0  0  0
  2  3  1  0  0  0  0
  2 35  1  0  0  0  0
  2 36  1  0  0  0  0
  3  4  1  0  0  0  0
  3 21  1  0  0  0  0
  3 31  1  0  0  0  0
  4  5  2  0  0  0  0
  4  6  1  0  0  0  0
  6  7  1  0  0  0  0
  6 37  1  0  0  0  0
  7  8  1  0  0  0  0
  7 20  2  0  0  0  0
  8  9  2  0  0  0  0
  8 38  1  0  0  0  0
  9 10  1  0  0  0  0
 10 11  2  0  0  0  0
 10 39  1  0  0  0  0
 11 12  1  0  0  0  0
 11 20  1  0  0  0  0
 12 13  2  0  0  0  0
 12 40  1  0  0  0  0
 13 14  1  0  0  0  0
 13 41  1  0  0  0  0
 14 15  1  0  0  0  0
 14 19  2  0  0  0  0
 15 16  1  0  0  0  0
 15 17  2  0  0  0  0
 15 18  2  0  0  0  0
 16 42  1  0  0  0  0
 16 43  1  0  0  0  0
 16 44  1  0  0  0  0
 19 20  1  0  0  0  0
 19 45  1  0  0  0  0
 21 22  1  0  0  0  0
 21 46  1  0  0  0  0
 21 47  1  0  0  0  0
 22 23  1  0  0  0  0
 22 48  1  0  0  0  0
 23 24  2  0  0  0  0
 23 25  1  0  0  0  0
 25 26  1  0  0  0  0
 25 31  2  0  0  0  0
 26 27  2  0  0  0  0
 26 49  1  0  0  0  0
 27 28  1  0  0  0  0
 27 50  1  0  0  0  0
 28 29  1  0  0  0  0
 28 30  2  0  0  0  0
 30 31  1  0  0  0  0
 30 51  1  0  0  0  0
M  END
$$$$
