
 OpenBabel07202414123D

 67 70  0  0  1  0  0  0  0  0999 V2000
    4.1671    1.5038   -1.5870 C   0  0  0  0  0  0  0  0  0  0  0  0
    3.0048    1.0838   -0.6556 C   0  0  0  0  0  0  0  0  0  0  0  0
    1.7848    1.9472   -1.0503 C   0  0  0  0  0  0  0  0  0  0  0  0
    2.6827   -0.3933   -0.9585 C   0  0  0  0  0  0  0  0  0  0  0  0
    3.3230    1.2807    0.8390 C   0  0  0  0  0  0  0  0  0  0  0  0
    4.5149    1.8736    1.2749 C   0  0  0  0  0  0  0  0  0  0  0  0
    4.7181    2.1923    2.6221 C   0  0  0  0  0  0  0  0  0  0  0  0
    3.7650    1.8794    3.6041 C   0  0  0  0  0  0  0  0  0  0  0  0
    4.0043    2.3241    4.9564 N   0  0  0  0  0  0  0  0  0  0  0  0
    3.9226    1.3697    6.1087 C   0  0  3  0  0  0  0  0  0  0  0  0
    2.4879    1.2066    6.7331 C   0  0  0  0  0  0  0  0  0  0  0  0
    1.4811    0.9502    6.0734 O   0  0  0  0  0  0  0  0  0  0  0  0
    2.4214    1.3035    8.1231 N   0  0  0  0  0  0  0  0  0  0  0  0
    1.2266    0.8690    8.8477 C   0  0  0  0  0  0  0  0  0  0  0  0
    0.9900    1.6850   10.1212 C   0  0  0  0  0  0  0  0  0  0  0  0
   -0.2325    1.2300   10.8825 C   0  0  0  0  0  0  0  0  0  0  0  0
   -1.4910    1.7919   10.6141 C   0  0  0  0  0  0  0  0  0  0  0  0
   -2.6270    1.3694   11.3124 C   0  0  0  0  0  0  0  0  0  0  0  0
   -2.5199    0.3764   12.2837 C   0  0  0  0  0  0  0  0  0  0  0  0
   -1.2764   -0.1853   12.5472 C   0  0  0  0  0  0  0  0  0  0  0  0
   -1.1695   -1.1402   13.4799 F   0  0  0  0  0  0  0  0  0  0  0  0
   -0.1382    0.2282   11.8582 C   0  0  0  0  0  0  0  0  0  0  0  0
    4.6107   -0.0059    5.9781 C   0  0  0  0  0  0  0  0  0  0  0  0
    5.2659   -0.4929    4.8470 C   0  0  0  0  0  0  0  0  0  0  0  0
    5.7607   -1.7960    4.8027 C   0  0  0  0  0  0  0  0  0  0  0  0
    5.6510   -2.5784    5.9319 C   0  0  0  0  0  0  0  0  0  0  0  0
    5.1314   -2.1281    7.0883 N   0  0  0  0  0  0  0  0  0  0  0  0
    4.6320   -0.8707    7.0807 C   0  0  0  0  0  0  0  0  0  0  0  0
    4.1139    3.7458    5.0854 C   0  0  0  0  0  0  0  0  0  0  0  0
    4.0477    4.4909    4.1085 O   0  0  0  0  0  0  0  0  0  0  0  0
    4.2415    4.3984    6.3842 C   0  0  0  0  0  0  0  0  0  0  0  0
    3.7402    5.7061    6.6510 C   0  0  0  0  0  0  0  0  0  0  0  0
    3.9936    6.1224    7.8929 N   0  0  0  0  0  0  0  0  0  0  0  0
    4.7215    5.1272    8.4121 N   0  0  0  0  0  0  0  0  0  0  0  0
    4.9376    4.0939    7.5379 C   0  0  0  0  0  0  0  0  0  0  0  0
    2.6232    1.1943    3.2011 C   0  0  0  0  0  0  0  0  0  0  0  0
    2.3954    0.9264    1.8361 C   0  0  0  0  0  0  0  0  0  0  0  0
    3.9067    1.3599   -2.6419 H   0  0  0  0  0  0  0  0  0  0  0  0
    5.0714    0.9157   -1.3913 H   0  0  0  0  0  0  0  0  0  0  0  0
    4.4176    2.5648   -1.4634 H   0  0  0  0  0  0  0  0  0  0  0  0
    1.5427    1.8207   -2.1129 H   0  0  0  0  0  0  0  0  0  0  0  0
    1.9808    3.0128   -0.8826 H   0  0  0  0  0  0  0  0  0  0  0  0
    0.8869    1.6819   -0.4820 H   0  0  0  0  0  0  0  0  0  0  0  0
    2.4349   -0.5300   -2.0185 H   0  0  0  0  0  0  0  0  0  0  0  0
    1.8260   -0.7582   -0.3821 H   0  0  0  0  0  0  0  0  0  0  0  0
    3.5372   -1.0402   -0.7311 H   0  0  0  0  0  0  0  0  0  0  0  0
    5.3072    2.1410    0.5818 H   0  0  0  0  0  0  0  0  0  0  0  0
    5.6429    2.6943    2.8988 H   0  0  0  0  0  0  0  0  0  0  0  0
    4.5204    1.8239    6.8942 H   0  0  0  0  0  0  0  0  0  0  0  0
    3.2784    1.3651    8.6550 H   0  0  0  0  0  0  0  0  0  0  0  0
    1.3799   -0.1884    9.0967 H   0  0  0  0  0  0  0  0  0  0  0  0
    0.3505    0.9211    8.1923 H   0  0  0  0  0  0  0  0  0  0  0  0
    0.8880    2.7477    9.8669 H   0  0  0  0  0  0  0  0  0  0  0  0
    1.8688    1.6241   10.7763 H   0  0  0  0  0  0  0  0  0  0  0  0
   -1.5966    2.5682    9.8577 H   0  0  0  0  0  0  0  0  0  0  0  0
   -3.5953    1.8151   11.0979 H   0  0  0  0  0  0  0  0  0  0  0  0
   -3.3907    0.0378   12.8329 H   0  0  0  0  0  0  0  0  0  0  0  0
    0.8126   -0.2387   12.0977 H   0  0  0  0  0  0  0  0  0  0  0  0
    5.4078    0.0989    3.9523 H   0  0  0  0  0  0  0  0  0  0  0  0
    6.2079   -2.1870    3.8958 H   0  0  0  0  0  0  0  0  0  0  0  0
    5.9891   -3.6096    5.9374 H   0  0  0  0  0  0  0  0  0  0  0  0
    4.2360   -0.5819    8.0490 H   0  0  0  0  0  0  0  0  0  0  0  0
    3.2025    6.3586    5.9735 H   0  0  0  0  0  0  0  0  0  0  0  0
    5.0591    5.2325    9.3634 H   0  0  0  0  0  0  0  0  0  0  0  0
    5.5939    3.2909    7.8215 H   0  0  0  0  0  0  0  0  0  0  0  0
    1.8383    0.9284    3.8942 H   0  0  0  0  0  0  0  0  0  0  0  0
    1.4463    0.4651    1.5660 H   0  0  0  0  0  0  0  0  0  0  0  0
  1  2  1  0  0  0  0
  1 38  1  0  0  0  0
  1 39  1  0  0  0  0
  1 40  1  0  0  0  0
  2  3  1  0  0  0  0
  2  4  1  0  0  0  0
  2  5  1  0  0  0  0
  3 41  1  0  0  0  0
  3 42  1  0  0  0  0
  3 43  1  0  0  0  0
  4 44  1  0  0  0  0
  4 45  1  0  0  0  0
  4 46  1  0  0  0  0
  5  6  1  0  0  0  0
  5 37  2  0  0  0  0
  6  7  2  0  0  0  0
  6 47  1  0  0  0  0
  7  8  1  0  0  0  0
  7 48  1  0  0  0  0
  8  9  1  0  0  0  0
  8 36  2  0  0  0  0
  9 10  1  0  0  0  0
  9 29  1  0  0  0  0
 10 11  1  0  0  0  0
 10 23  1  0  0  0  0
 10 49  1  0  0  0  0
 11 12  2  0  0  0  0
 11 13  1  0  0  0  0
 13 14  1  0  0  0  0
 13 50  1  0  0  0  0
 14 15  1  0  0  0  0
 14 51  1  0  0  0  0
 14 52  1  0  0  0  0
 15 16  1  0  0  0  0
 15 53  1  0  0  0  0
 15 54  1  0  0  0  0
 16 17  1  0  0  0  0
 16 22  2  0  0  0  0
 17 18  2  0  0  0  0
 17 55  1  0  0  0  0
 18 19  1  0  0  0  0
 18 56  1  0  0  0  0
 19 20  2  0  0  0  0
 19 57  1  0  0  0  0
 20 21  1  0  0  0  0
 20 22  1  0  0  0  0
 22 58  1  0  0  0  0
 23 24  1  0  0  0  0
 23 28  2  0  0  0  0
 24 25  2  0  0  0  0
 24 59  1  0  0  0  0
 25 26  1  0  0  0  0
 25 60  1  0  0  0  0
 26 27  2  0  0  0  0
 26 61  1  0  0  0  0
 27 28  1  0  0  0  0
 28 62  1  0  0  0  0
 29 30  2  0  0  0  0
 29 31  1  0  0  0  0
 31 32  1  0  0  0  0
 31 35  2  0  0  0  0
 32 33  2  0  0  0  0
 32 63  1  0  0  0  0
 33 34  1  0  0  0  0
 34 35  1  0  0  0  0
 34 64  1  0  0  0  0
 35 65  1  0  0  0  0
 36 37  1  0  0  0  0
 36 66  1  0  0  0  0
 37 67  1  0  0  0  0
M  END
$$$$
