
 OpenBabel07202414173D

 56 60  0  0  1  0  0  0  0  0999 V2000
    1.4630   -6.6084   -0.7102 Cl  0  0  0  0  0  0  0  0  0  0  0  0
    1.7143   -4.9339   -0.4074 C   0  0  0  0  0  0  0  0  0  0  0  0
    0.6527   -4.0405   -0.5071 C   0  0  0  0  0  0  0  0  0  0  0  0
    0.8682   -2.6830   -0.2616 C   0  0  0  0  0  0  0  0  0  0  0  0
    2.1374   -2.2208    0.0923 C   0  0  0  0  0  0  0  0  0  0  0  0
    3.2073   -3.1154    0.1942 C   0  0  0  0  0  0  0  0  0  0  0  0
    2.9847   -4.4802   -0.0617 C   0  0  0  0  0  0  0  0  0  0  0  0
    4.5756   -2.6348    0.6013 C   0  0  3  0  0  0  0  0  0  0  0  0
    4.8708   -3.0335    2.0489 C   0  0  0  0  0  0  0  0  0  0  0  0
    4.5567   -2.2957    2.9922 O   0  0  0  0  0  0  0  0  0  0  0  0
    5.4831   -4.2707    2.1538 N   0  0  0  0  0  0  0  0  0  0  0  0
    5.8586   -4.8754    3.3779 C   0  0  0  0  0  0  0  0  0  0  0  0
    5.3450   -4.4079    4.5909 C   0  0  0  0  0  0  0  0  0  0  0  0
    5.8892   -4.6683    5.7924 N   0  0  0  0  0  0  0  0  0  0  0  0
    6.8920   -5.5609    5.7984 C   0  0  0  0  0  0  0  0  0  0  0  0
    7.2757   -6.3150    4.6933 C   0  0  0  0  0  0  0  0  0  0  0  0
    8.0800   -7.4450    4.8825 C   0  0  0  0  0  0  0  0  0  0  0  0
    8.4391   -8.2774    3.8107 C   0  0  0  0  0  0  0  0  0  0  0  0
    9.1338   -9.5993    4.1157 C   0  0  0  0  0  0  0  0  0  0  0  0
    8.2162  -10.6483    4.6128 N   0  0  0  0  0  0  0  0  0  0  0  0
    8.9415  -11.8357    5.1022 C   0  0  0  0  0  0  0  0  0  0  0  0
    9.5128  -12.7524    3.9984 C   0  0  0  0  0  0  0  0  0  0  0  0
    8.5410  -13.1971    2.9933 N   0  0  0  0  0  0  0  0  0  0  0  0
    7.6169  -12.1284    2.5858 C   0  0  0  0  0  0  0  0  0  0  0  0
    7.1879  -11.0979    3.6602 C   0  0  0  0  0  0  0  0  0  0  0  0
    8.0814   -7.8750    2.5249 C   0  0  0  0  0  0  0  0  0  0  0  0
    7.2794   -6.7315    2.3246 C   0  0  0  0  0  0  0  0  0  0  0  0
    6.7931   -5.9552    3.4205 C   0  0  0  0  0  0  0  0  0  0  0  0
    4.6909   -1.1263    0.3981 C   0  0  0  0  0  0  0  0  0  0  0  0
    3.4459   -0.4160    0.9071 C   0  0  0  0  0  0  0  0  0  0  0  0
    2.2492   -0.8704    0.2700 O   0  0  0  0  0  0  0  0  0  0  0  0
   -0.3396   -4.3904   -0.7753 H   0  0  0  0  0  0  0  0  0  0  0  0
    0.0423   -1.9805   -0.3414 H   0  0  0  0  0  0  0  0  0  0  0  0
    3.7998   -5.1960    0.0130 H   0  0  0  0  0  0  0  0  0  0  0  0
    5.3320   -3.1045   -0.0395 H   0  0  0  0  0  0  0  0  0  0  0  0
    5.9073   -4.6429    1.3159 H   0  0  0  0  0  0  0  0  0  0  0  0
    4.4519   -3.7933    4.6437 H   0  0  0  0  0  0  0  0  0  0  0  0
    7.4021   -5.6492    6.7513 H   0  0  0  0  0  0  0  0  0  0  0  0
    8.3527   -7.7384    5.8968 H   0  0  0  0  0  0  0  0  0  0  0  0
    9.8409   -9.3762    4.9259 H   0  0  0  0  0  0  0  0  0  0  0  0
    9.7348   -9.9217    3.2648 H   0  0  0  0  0  0  0  0  0  0  0  0
    8.2426  -12.4280    5.7093 H   0  0  0  0  0  0  0  0  0  0  0  0
    9.7434  -11.5425    5.7895 H   0  0  0  0  0  0  0  0  0  0  0  0
    9.9314  -13.6484    4.4738 H   0  0  0  0  0  0  0  0  0  0  0  0
   10.3502  -12.2568    3.4952 H   0  0  0  0  0  0  0  0  0  0  0  0
    8.0051  -13.9772    3.3708 H   0  0  0  0  0  0  0  0  0  0  0  0
    6.7059  -12.6183    2.2130 H   0  0  0  0  0  0  0  0  0  0  0  0
    8.0496  -11.6020    1.7300 H   0  0  0  0  0  0  0  0  0  0  0  0
    6.3961  -11.5663    4.2612 H   0  0  0  0  0  0  0  0  0  0  0  0
    6.6921  -10.2535    3.1694 H   0  0  0  0  0  0  0  0  0  0  0  0
    8.3926   -8.4664    1.6633 H   0  0  0  0  0  0  0  0  0  0  0  0
    6.9832   -6.4982    1.3062 H   0  0  0  0  0  0  0  0  0  0  0  0
    4.7875   -0.9325   -0.6775 H   0  0  0  0  0  0  0  0  0  0  0  0
    5.5883   -0.7300    0.8871 H   0  0  0  0  0  0  0  0  0  0  0  0
    3.5391    0.6531    0.6847 H   0  0  0  0  0  0  0  0  0  0  0  0
    3.3218   -0.4933    1.9919 H   0  0  0  0  0  0  0  0  0  0  0  0
  1  2  1  0  0  0  0
  2  3  1  0  0  0  0
  2  7  2  0  0  0  0
  3  4  2  0  0  0  0
  3 32  1  0  0  0  0
  4  5  1  0  0  0  0
  4 33  1  0  0  0  0
  5  6  2  0  0  0  0
  5 31  1  0  0  0  0
  6  7  1  0  0  0  0
  6  8  1  0  0  0  0
  7 34  1  0  0  0  0
  8  9  1  0  0  0  0
  8 29  1  0  0  0  0
  8 35  1  0  0  0  0
  9 10  2  0  0  0  0
  9 11  1  0  0  0  0
 11 12  1  0  0  0  0
 11 36  1  0  0  0  0
 12 13  1  0  0  0  0
 12 28  2  0  0  0  0
 13 14  2  0  0  0  0
 13 37  1  0  0  0  0
 14 15  1  0  0  0  0
 15 16  2  0  0  0  0
 15 38  1  0  0  0  0
 16 17  1  0  0  0  0
 16 28  1  0  0  0  0
 17 18  2  0  0  0  0
 17 39  1  0  0  0  0
 18 19  1  0  0  0  0
 18 26  1  0  0  0  0
 19 20  1  0  0  0  0
 19 40  1  0  0  0  0
 19 41  1  0  0  0  0
 20 21  1  0  0  0  0
 20 25  1  0  0  0  0
 21 22  1  0  0  0  0
 21 42  1  0  0  0  0
 21 43  1  0  0  0  0
 22 23  1  0  0  0  0
 22 44  1  0  0  0  0
 22 45  1  0  0  0  0
 23 24  1  0  0  0  0
 23 46  1  0  0  0  0
 24 25  1  0  0  0  0
 24 47  1  0  0  0  0
 24 48  1  0  0  0  0
 25 49  1  0  0  0  0
 25 50  1  0  0  0  0
 26 27  2  0  0  0  0
 26 51  1  0  0  0  0
 27 28  1  0  0  0  0
 27 52  1  0  0  0  0
 29 30  1  0  0  0  0
 29 53  1  0  0  0  0
 29 54  1  0  0  0  0
 30 31  1  0  0  0  0
 30 55  1  0  0  0  0
 30 56  1  0  0  0  0
M  END
$$$$
