
 OpenBabel07202414133D

 63 67  0  0  0  0  0  0  0  0999 V2000
   -3.9356    0.1897   11.7641 C   0  0  0  0  0  0  0  0  0  0  0  0
   -4.6822   -0.5033   10.7180 N   0  0  0  0  0  0  0  0  0  0  0  0
   -5.7542    0.3691   10.1847 C   0  0  0  0  0  0  0  0  0  0  0  0
   -6.5423   -0.2896    9.0278 C   0  0  0  0  0  0  0  0  0  0  0  0
   -5.6020   -0.6851    7.9723 N   0  0  0  0  0  0  0  0  0  0  0  0
   -5.9499   -0.6746    6.6335 C   0  0  0  0  0  0  0  0  0  0  0  0
   -4.9839   -0.5321    5.6177 C   0  0  0  0  0  0  0  0  0  0  0  0
   -3.6841   -0.4008    5.9342 F   0  0  0  0  0  0  0  0  0  0  0  0
   -5.3230   -0.4403    4.2685 C   0  0  0  0  0  0  0  0  0  0  0  0
   -6.6590   -0.4796    3.8795 C   0  0  0  0  0  0  0  0  0  0  0  0
   -6.9915   -0.3094    2.5270 N   0  0  0  0  0  0  0  0  0  0  0  0
   -8.1059    0.3355    1.9600 C   0  0  0  0  0  0  0  0  0  0  0  0
   -8.5742   -0.0840    0.7118 C   0  0  0  0  0  0  0  0  0  0  0  0
   -9.7047    0.5064    0.1248 C   0  0  0  0  0  0  0  0  0  0  0  0
  -10.1921    0.0330   -1.2236 C   0  0  0  0  0  0  0  0  0  0  0  0
  -10.5065   -1.4509   -1.2877 C   0  0  0  0  0  0  0  0  0  0  0  0
  -10.1436   -2.1263   -2.2525 O   0  0  0  0  0  0  0  0  0  0  0  0
  -11.2881   -1.9302   -0.2534 N   0  0  0  0  0  0  0  0  0  0  0  0
  -11.6944   -3.2814   -0.1607 C   0  0  0  0  0  0  0  0  0  0  0  0
  -10.8049   -4.3240   -0.4303 C   0  0  0  0  0  0  0  0  0  0  0  0
  -11.1082   -5.6375   -0.3222 N   0  0  0  0  0  0  0  0  0  0  0  0
  -12.3764   -5.9285    0.0368 C   0  0  0  0  0  0  0  0  0  0  0  0
  -13.3654   -4.9785    0.3093 C   0  0  0  0  0  0  0  0  0  0  0  0
  -14.6794   -5.3561    0.6284 C   0  0  0  0  0  0  0  0  0  0  0  0
  -15.6626   -4.3927    0.8481 C   0  0  0  0  0  0  0  0  0  0  0  0
  -15.3425   -3.0442    0.7581 C   0  0  0  0  0  0  0  0  0  0  0  0
  -14.0366   -2.6564    0.4536 C   0  0  0  0  0  0  0  0  0  0  0  0
  -13.0151   -3.6107    0.2236 C   0  0  0  0  0  0  0  0  0  0  0  0
  -10.3599    1.5460    0.7939 C   0  0  0  0  0  0  0  0  0  0  0  0
   -9.8956    1.9701    2.0342 C   0  0  0  0  0  0  0  0  0  0  0  0
  -10.7047    3.2446    2.8611 Cl  0  0  0  0  0  0  0  0  0  0  0  0
   -8.7811    1.3690    2.6171 C   0  0  0  0  0  0  0  0  0  0  0  0
   -7.6328   -0.6350    4.8667 C   0  0  0  0  0  0  0  0  0  0  0  0
   -7.2851   -0.7346    6.2177 C   0  0  0  0  0  0  0  0  0  0  0  0
   -4.5251   -1.5732    8.4408 C   0  0  0  0  0  0  0  0  0  0  0  0
   -3.7751   -0.8950    9.6093 C   0  0  0  0  0  0  0  0  0  0  0  0
   -4.6006    0.4559   12.5931 H   0  0  0  0  0  0  0  0  0  0  0  0
   -3.4566    1.1054   11.3989 H   0  0  0  0  0  0  0  0  0  0  0  0
   -3.1604   -0.4642   12.1777 H   0  0  0  0  0  0  0  0  0  0  0  0
   -5.3244    1.3120    9.8183 H   0  0  0  0  0  0  0  0  0  0  0  0
   -6.4600    0.6195   10.9850 H   0  0  0  0  0  0  0  0  0  0  0  0
   -7.2697    0.4456    8.6634 H   0  0  0  0  0  0  0  0  0  0  0  0
   -7.0951   -1.1653    9.3904 H   0  0  0  0  0  0  0  0  0  0  0  0
   -4.5312   -0.2831    3.5434 H   0  0  0  0  0  0  0  0  0  0  0  0
   -6.4534   -0.8985    1.9000 H   0  0  0  0  0  0  0  0  0  0  0  0
   -8.0589   -0.8886    0.1884 H   0  0  0  0  0  0  0  0  0  0  0  0
   -9.4076    0.2479   -1.9588 H   0  0  0  0  0  0  0  0  0  0  0  0
  -11.0883    0.5814   -1.5363 H   0  0  0  0  0  0  0  0  0  0  0  0
  -11.7935   -1.2479    0.2968 H   0  0  0  0  0  0  0  0  0  0  0  0
   -9.7746   -4.1286   -0.7149 H   0  0  0  0  0  0  0  0  0  0  0  0
  -12.5916   -6.9933    0.0869 H   0  0  0  0  0  0  0  0  0  0  0  0
  -14.9528   -6.4074    0.6858 H   0  0  0  0  0  0  0  0  0  0  0  0
  -16.6821   -4.6950    1.0753 H   0  0  0  0  0  0  0  0  0  0  0  0
  -16.1101   -2.2894    0.9052 H   0  0  0  0  0  0  0  0  0  0  0  0
  -13.8419   -1.5929    0.3593 H   0  0  0  0  0  0  0  0  0  0  0  0
  -11.2267    2.0329    0.3479 H   0  0  0  0  0  0  0  0  0  0  0  0
   -8.4247    1.7344    3.5742 H   0  0  0  0  0  0  0  0  0  0  0  0
   -8.6848   -0.6979    4.5950 H   0  0  0  0  0  0  0  0  0  0  0  0
   -8.0853   -0.8702    6.9388 H   0  0  0  0  0  0  0  0  0  0  0  0
   -3.8027   -1.8272    7.6593 H   0  0  0  0  0  0  0  0  0  0  0  0
   -4.9627   -2.5213    8.7804 H   0  0  0  0  0  0  0  0  0  0  0  0
   -3.2481   -0.0124    9.2212 H   0  0  0  0  0  0  0  0  0  0  0  0
   -3.0183   -1.5929    9.9856 H   0  0  0  0  0  0  0  0  0  0  0  0
  1  2  1  0  0  0  0
  1 37  1  0  0  0  0
  1 38  1  0  0  0  0
  1 39  1  0  0  0  0
  2  3  1  0  0  0  0
  2 36  1  0  0  0  0
  3  4  1  0  0  0  0
  3 40  1  0  0  0  0
  3 41  1  0  0  0  0
  4  5  1  0  0  0  0
  4 42  1  0  0  0  0
  4 43  1  0  0  0  0
  5  6  1  0  0  0  0
  5 35  1  0  0  0  0
  6  7  2  0  0  0  0
  6 34  1  0  0  0  0
  7  8  1  0  0  0  0
  7  9  1  0  0  0  0
  9 10  2  0  0  0  0
  9 44  1  0  0  0  0
 10 11  1  0  0  0  0
 10 33  1  0  0  0  0
 11 12  1  0  0  0  0
 11 45  1  0  0  0  0
 12 13  2  0  0  0  0
 12 32  1  0  0  0  0
 13 14  1  0  0  0  0
 13 46  1  0  0  0  0
 14 15  1  0  0  0  0
 14 29  2  0  0  0  0
 15 16  1  0  0  0  0
 15 47  1  0  0  0  0
 15 48  1  0  0  0  0
 16 17  2  0  0  0  0
 16 18  1  0  0  0  0
 18 19  1  0  0  0  0
 18 49  1  0  0  0  0
 19 20  2  0  0  0  0
 19 28  1  0  0  0  0
 20 21  1  0  0  0  0
 20 50  1  0  0  0  0
 21 22  2  0  0  0  0
 22 23  1  0  0  0  0
 22 51  1  0  0  0  0
 23 24  2  0  0  0  0
 23 28  1  0  0  0  0
 24 25  1  0  0  0  0
 24 52  1  0  0  0  0
 25 26  2  0  0  0  0
 25 53  1  0  0  0  0
 26 27  1  0  0  0  0
 26 54  1  0  0  0  0
 27 28  2  0  0  0  0
 27 55  1  0  0  0  0
 29 30  1  0  0  0  0
 29 56  1  0  0  0  0
 30 31  1  0  0  0  0
 30 32  2  0  0  0  0
 32 57  1  0  0  0  0
 33 34  2  0  0  0  0
 33 58  1  0  0  0  0
 34 59  1  0  0  0  0
 35 36  1  0  0  0  0
 35 60  1  0  0  0  0
 35 61  1  0  0  0  0
 36 62  1  0  0  0  0
 36 63  1  0  0  0  0
M  END
$$$$
