
 OpenBabel07202414193D

 57 60  0  0  1  0  0  0  0  0999 V2000
    3.4042    0.8720   -0.2925 N   0  0  0  0  0  0  0  0  0  0  0  0
    4.5257   -0.0122   -0.6962 C   0  0  1  0  0  0  0  0  0  0  0  0
    5.5628    0.6760   -1.6096 C   0  0  0  0  0  0  0  0  0  0  0  0
    5.0199    1.2603   -2.8924 C   0  0  0  0  0  0  0  0  0  0  0  0
    5.1417    2.6363   -3.1405 C   0  0  0  0  0  0  0  0  0  0  0  0
    4.6704    3.1898   -4.3325 C   0  0  0  0  0  0  0  0  0  0  0  0
    4.0787    2.3640   -5.2809 C   0  0  0  0  0  0  0  0  0  0  0  0
    3.6067    2.8616   -6.4590 O   0  0  0  0  0  0  0  0  0  0  0  0
    3.9563    0.9981   -5.0577 C   0  0  0  0  0  0  0  0  0  0  0  0
    4.4305    0.4438   -3.8671 C   0  0  0  0  0  0  0  0  0  0  0  0
    5.2482   -0.5107    0.5761 C   0  0  0  0  0  0  0  0  0  0  0  0
    6.4734   -0.5608    0.6580 O   0  0  0  0  0  0  0  0  0  0  0  0
    4.3831   -0.9417    1.5718 N   0  0  0  0  0  0  0  0  0  0  0  0
    4.8224   -1.3647    2.8374 C   0  0  0  0  0  0  0  0  0  0  0  0
    4.2042   -2.4595    3.4346 C   0  0  0  0  0  0  0  0  0  0  0  0
    4.6798   -2.9279    4.6590 C   0  0  0  0  0  0  0  0  0  0  0  0
    4.0022   -4.3559    5.3400 Cl  0  0  0  0  0  0  0  0  0  0  0  0
    5.7121   -2.2671    5.3301 C   0  0  0  0  0  0  0  0  0  0  0  0
    6.3018   -1.1305    4.7639 C   0  0  0  0  0  0  0  0  0  0  0  0
    7.3858   -0.3684    5.4915 C   0  0  0  0  0  0  0  0  0  0  0  0
    6.9423    0.7386    6.4398 C   0  0  0  0  0  0  0  0  0  0  0  0
    7.7264    1.1664    7.2886 O   0  0  0  0  0  0  0  0  0  0  0  0
    5.6575    1.2166    6.2728 N   0  0  0  0  0  0  0  0  0  0  0  0
    5.1168    2.2529    7.0776 C   0  0  0  0  0  0  0  0  0  0  0  0
    5.8554    3.4053    7.3591 C   0  0  0  0  0  0  0  0  0  0  0  0
    5.3959    4.4467    8.0897 N   0  0  0  0  0  0  0  0  0  0  0  0
    4.1516    4.3143    8.5998 C   0  0  0  0  0  0  0  0  0  0  0  0
    3.3292    3.2017    8.4070 C   0  0  0  0  0  0  0  0  0  0  0  0
    2.0639    3.1085    9.0078 C   0  0  0  0  0  0  0  0  0  0  0  0
    1.2698    1.9812    8.8446 C   0  0  0  0  0  0  0  0  0  0  0  0
    1.7247    0.9290    8.0600 C   0  0  0  0  0  0  0  0  0  0  0  0
    2.9733    1.0068    7.4450 C   0  0  0  0  0  0  0  0  0  0  0  0
    3.8087    2.1432    7.6040 C   0  0  0  0  0  0  0  0  0  0  0  0
    5.8592   -0.6988    3.5051 C   0  0  0  0  0  0  0  0  0  0  0  0
    3.0683    1.3645   -1.1238 H   0  0  0  0  0  0  0  0  0  0  0  0
    3.7754    1.6074    0.3131 H   0  0  0  0  0  0  0  0  0  0  0  0
    4.1028   -0.8874   -1.2034 H   0  0  0  0  0  0  0  0  0  0  0  0
    6.3473   -0.0431   -1.8827 H   0  0  0  0  0  0  0  0  0  0  0  0
    6.0759    1.4631   -1.0398 H   0  0  0  0  0  0  0  0  0  0  0  0
    5.6168    3.2874   -2.4093 H   0  0  0  0  0  0  0  0  0  0  0  0
    4.7798    4.2562   -4.5020 H   0  0  0  0  0  0  0  0  0  0  0  0
    3.7890    3.8149   -6.4883 H   0  0  0  0  0  0  0  0  0  0  0  0
    3.5013    0.3646   -5.8140 H   0  0  0  0  0  0  0  0  0  0  0  0
    4.3471   -0.6301   -3.7175 H   0  0  0  0  0  0  0  0  0  0  0  0
    3.4349   -1.1495    1.2755 H   0  0  0  0  0  0  0  0  0  0  0  0
    3.4117   -2.9949    2.9201 H   0  0  0  0  0  0  0  0  0  0  0  0
    6.0652   -2.6499    6.2858 H   0  0  0  0  0  0  0  0  0  0  0  0
    8.0669    0.0885    4.7635 H   0  0  0  0  0  0  0  0  0  0  0  0
    7.9822   -1.0818    6.0742 H   0  0  0  0  0  0  0  0  0  0  0  0
    4.9966    0.6064    5.8149 H   0  0  0  0  0  0  0  0  0  0  0  0
    6.8564    3.5472    6.9621 H   0  0  0  0  0  0  0  0  0  0  0  0
    3.8247    5.1566    9.2025 H   0  0  0  0  0  0  0  0  0  0  0  0
    1.6978    3.9237    9.6438 H   0  0  0  0  0  0  0  0  0  0  0  0
    0.3064    1.9133    9.3412 H   0  0  0  0  0  0  0  0  0  0  0  0
    1.1163    0.0349    7.9418 H   0  0  0  0  0  0  0  0  0  0  0  0
    3.2970    0.1451    6.8669 H   0  0  0  0  0  0  0  0  0  0  0  0
    6.3152    0.1815    3.0530 H   0  0  0  0  0  0  0  0  0  0  0  0
  1  2  1  0  0  0  0
  1 35  1  0  0  0  0
  1 36  1  0  0  0  0
  2  3  1  0  0  0  0
  2 11  1  0  0  0  0
  2 37  1  6  0  0  0
  3  4  1  0  0  0  0
  3 38  1  0  0  0  0
  3 39  1  0  0  0  0
  4  5  1  0  0  0  0
  4 10  2  0  0  0  0
  5  6  2  0  0  0  0
  5 40  1  0  0  0  0
  6  7  1  0  0  0  0
  6 41  1  0  0  0  0
  7  8  1  0  0  0  0
  7  9  2  0  0  0  0
  8 42  1  0  0  0  0
  9 10  1  0  0  0  0
  9 43  1  0  0  0  0
 10 44  1  0  0  0  0
 11 12  2  0  0  0  0
 11 13  1  0  0  0  0
 13 14  1  0  0  0  0
 13 45  1  0  0  0  0
 14 15  1  0  0  0  0
 14 34  2  0  0  0  0
 15 16  2  0  0  0  0
 15 46  1  0  0  0  0
 16 17  1  0  0  0  0
 16 18  1  0  0  0  0
 18 19  2  0  0  0  0
 18 47  1  0  0  0  0
 19 20  1  0  0  0  0
 19 34  1  0  0  0  0
 20 21  1  0  0  0  0
 20 48  1  0  0  0  0
 20 49  1  0  0  0  0
 21 22  2  0  0  0  0
 21 23  1  0  0  0  0
 23 24  1  0  0  0  0
 23 50  1  0  0  0  0
 24 25  1  0  0  0  0
 24 33  2  0  0  0  0
 25 26  2  0  0  0  0
 25 51  1  0  0  0  0
 26 27  1  0  0  0  0
 27 28  2  0  0  0  0
 27 52  1  0  0  0  0
 28 29  1  0  0  0  0
 28 33  1  0  0  0  0
 29 30  2  0  0  0  0
 29 53  1  0  0  0  0
 30 31  1  0  0  0  0
 30 54  1  0  0  0  0
 31 32  2  0  0  0  0
 31 55  1  0  0  0  0
 32 33  1  0  0  0  0
 32 56  1  0  0  0  0
 34 57  1  0  0  0  0
M  END
$$$$
