
 OpenBabel07202414193D

 44 47  0  0  1  0  0  0  0  0999 V2000
    1.1423    0.1954    0.0743 O   0  0  0  0  0  0  0  0  0  0  0  0
    2.3205   -0.0438   -0.1936 C   0  0  0  0  0  0  0  0  0  0  0  0
    2.9914   -1.3219    0.3121 C   0  0  0  0  0  0  0  0  0  0  0  0
    3.5641   -1.1808    1.7063 C   0  0  0  0  0  0  0  0  0  0  0  0
    2.9034   -0.3774    2.6434 C   0  0  0  0  0  0  0  0  0  0  0  0
    3.3201   -0.1723    3.9144 N   0  0  0  0  0  0  0  0  0  0  0  0
    4.4409   -0.8127    4.2884 C   0  0  0  0  0  0  0  0  0  0  0  0
    5.1781   -1.6581    3.4656 C   0  0  0  0  0  0  0  0  0  0  0  0
    6.3449   -2.2912    3.9384 C   0  0  0  0  0  0  0  0  0  0  0  0
    7.0754   -3.1430    3.1161 C   0  0  0  0  0  0  0  0  0  0  0  0
    6.6426   -3.3846    1.8197 C   0  0  0  0  0  0  0  0  0  0  0  0
    5.4844   -2.7666    1.3382 C   0  0  0  0  0  0  0  0  0  0  0  0
    4.7281   -1.8713    2.1414 C   0  0  0  0  0  0  0  0  0  0  0  0
    3.1119    0.8463   -0.8887 N   0  0  0  0  0  0  0  0  0  0  0  0
    2.6417    2.1707   -1.2576 C   0  0  0  0  0  0  0  0  0  0  0  0
    3.2989    2.4412   -2.6019 C   0  0  0  0  0  0  0  0  0  0  0  0
    4.6263    1.6715   -2.5403 C   0  0  1  0  0  0  0  0  0  0  0  0
    5.7874    2.5232   -2.0750 C   0  0  0  0  0  0  0  0  0  0  0  0
    6.1322    2.6677   -0.7231 C   0  0  0  0  0  0  0  0  0  0  0  0
    7.2535    3.4127   -0.3487 C   0  0  0  0  0  0  0  0  0  0  0  0
    8.0396    4.0341   -1.3169 C   0  0  0  0  0  0  0  0  0  0  0  0
    7.6987    3.9191   -2.6624 C   0  0  0  0  0  0  0  0  0  0  0  0
    6.5835    3.1712   -3.0289 C   0  0  0  0  0  0  0  0  0  0  0  0
    6.2819    3.0653   -4.3308 F   0  0  0  0  0  0  0  0  0  0  0  0
    4.2993    0.4739   -1.6414 C   0  0  0  0  0  0  0  0  0  0  0  0
    3.7675   -1.6138   -0.3981 H   0  0  0  0  0  0  0  0  0  0  0  0
    2.2509   -2.1289    0.2990 H   0  0  0  0  0  0  0  0  0  0  0  0
    1.9911    0.1558    2.4017 H   0  0  0  0  0  0  0  0  0  0  0  0
    4.7401   -0.6230    5.3143 H   0  0  0  0  0  0  0  0  0  0  0  0
    6.6896   -2.1212    4.9562 H   0  0  0  0  0  0  0  0  0  0  0  0
    7.9784   -3.6199    3.4888 H   0  0  0  0  0  0  0  0  0  0  0  0
    7.2009   -4.0621    1.1775 H   0  0  0  0  0  0  0  0  0  0  0  0
    5.1811   -3.0017    0.3244 H   0  0  0  0  0  0  0  0  0  0  0  0
    2.9952    2.8767   -0.4994 H   0  0  0  0  0  0  0  0  0  0  0  0
    1.5511    2.2251   -1.3027 H   0  0  0  0  0  0  0  0  0  0  0  0
    3.4033    3.5103   -2.8115 H   0  0  0  0  0  0  0  0  0  0  0  0
    2.6704    2.0051   -3.3899 H   0  0  0  0  0  0  0  0  0  0  0  0
    4.8770    1.2818   -3.5361 H   0  0  0  0  0  0  0  0  0  0  0  0
    5.5431    2.1988    0.0632 H   0  0  0  0  0  0  0  0  0  0  0  0
    7.5143    3.4995    0.7037 H   0  0  0  0  0  0  0  0  0  0  0  0
    8.9138    4.6080   -1.0217 H   0  0  0  0  0  0  0  0  0  0  0  0
    8.2990    4.3982   -3.4288 H   0  0  0  0  0  0  0  0  0  0  0  0
    5.1035    0.1758   -0.9620 H   0  0  0  0  0  0  0  0  0  0  0  0
    4.0332   -0.3957   -2.2543 H   0  0  0  0  0  0  0  0  0  0  0  0
  1  2  2  0  0  0  0
  2  3  1  0  0  0  0
  2 14  1  0  0  0  0
  3  4  1  0  0  0  0
  3 26  1  0  0  0  0
  3 27  1  0  0  0  0
  4  5  1  0  0  0  0
  4 13  2  0  0  0  0
  5  6  2  0  0  0  0
  5 28  1  0  0  0  0
  6  7  1  0  0  0  0
  7  8  2  0  0  0  0
  7 29  1  0  0  0  0
  8  9  1  0  0  0  0
  8 13  1  0  0  0  0
  9 10  2  0  0  0  0
  9 30  1  0  0  0  0
 10 11  1  0  0  0  0
 10 31  1  0  0  0  0
 11 12  2  0  0  0  0
 11 32  1  0  0  0  0
 12 13  1  0  0  0  0
 12 33  1  0  0  0  0
 14 15  1  0  0  0  0
 14 25  1  0  0  0  0
 15 16  1  0  0  0  0
 15 34  1  0  0  0  0
 15 35  1  0  0  0  0
 16 17  1  0  0  0  0
 16 36  1  0  0  0  0
 16 37  1  0  0  0  0
 17 18  1  0  0  0  0
 17 25  1  0  0  0  0
 17 38  1  6  0  0  0
 18 19  1  0  0  0  0
 18 23  2  0  0  0  0
 19 20  2  0  0  0  0
 19 39  1  0  0  0  0
 20 21  1  0  0  0  0
 20 40  1  0  0  0  0
 21 22  2  0  0  0  0
 21 41  1  0  0  0  0
 22 23  1  0  0  0  0
 22 42  1  0  0  0  0
 23 24  1  0  0  0  0
 25 43  1  0  0  0  0
 25 44  1  0  0  0  0
M  END
$$$$
