
 OpenBabel07202414203D

 49 52  0  0  0  0  0  0  0  0999 V2000
    0.4824   -1.5732    0.5477 O   0  0  0  0  0  0  0  0  0  0  0  0
    0.2489   -2.9271    0.6429 C   0  0  0  0  0  0  0  0  0  0  0  0
    1.1922   -3.8596    1.1121 C   0  0  0  0  0  0  0  0  0  0  0  0
    2.5311   -3.4469    1.5322 N   0  3  0  0  0  0  0  0  0  0  0  0
    2.7729   -2.2280    1.5319 O   0  5  0  0  0  0  0  0  0  0  0  0
    3.3440   -4.3306    1.8590 O   0  0  0  0  0  0  0  0  0  0  0  0
    0.8717   -5.2247    1.1793 C   0  0  0  0  0  0  0  0  0  0  0  0
   -0.3905   -5.6473    0.7833 C   0  0  0  0  0  0  0  0  0  0  0  0
   -0.7909   -7.3185    0.8392 Cl  0  0  0  0  0  0  0  0  0  0  0  0
   -1.3332   -4.7315    0.3262 C   0  0  0  0  0  0  0  0  0  0  0  0
   -1.0266   -3.3665    0.2312 C   0  0  0  0  0  0  0  0  0  0  0  0
   -1.9917   -2.4432   -0.2264 N   0  0  0  0  0  0  0  0  0  0  0  0
   -3.3919   -2.4720   -0.1207 C   0  0  0  0  0  0  0  0  0  0  0  0
   -4.1837   -1.9379   -1.1408 C   0  0  0  0  0  0  0  0  0  0  0  0
   -5.5759   -2.0342   -1.0768 C   0  0  0  0  0  0  0  0  0  0  0  0
   -6.5346   -1.3748   -2.3461 Cl  0  0  0  0  0  0  0  0  0  0  0  0
   -6.2004   -2.6671   -0.0014 C   0  0  0  0  0  0  0  0  0  0  0  0
   -5.4315   -3.2066    1.0324 C   0  0  0  0  0  0  0  0  0  0  0  0
   -6.0765   -3.9400    2.1827 C   0  0  0  0  0  0  0  0  0  0  0  0
   -5.6423   -3.4501    3.5599 C   0  0  0  0  0  0  0  0  0  0  0  0
   -5.3358   -4.2539    4.4376 O   0  0  0  0  0  0  0  0  0  0  0  0
   -5.7347   -2.0866    3.7319 N   0  0  0  0  0  0  0  0  0  0  0  0
   -5.3851   -1.4249    4.9315 C   0  0  0  0  0  0  0  0  0  0  0  0
   -4.3002   -1.8444    5.7047 C   0  0  0  0  0  0  0  0  0  0  0  0
   -3.8834   -1.2329    6.8356 N   0  0  0  0  0  0  0  0  0  0  0  0
   -4.6085   -0.1676    7.2384 C   0  0  0  0  0  0  0  0  0  0  0  0
   -5.7285    0.3332    6.5678 C   0  0  0  0  0  0  0  0  0  0  0  0
   -6.4657    1.4169    7.0760 C   0  0  0  0  0  0  0  0  0  0  0  0
   -7.6081    1.8726    6.4200 C   0  0  0  0  0  0  0  0  0  0  0  0
   -8.0209    1.2542    5.2463 C   0  0  0  0  0  0  0  0  0  0  0  0
   -7.2886    0.1858    4.7249 C   0  0  0  0  0  0  0  0  0  0  0  0
   -6.1264   -0.3016    5.3690 C   0  0  0  0  0  0  0  0  0  0  0  0
   -4.0328   -3.1038    0.9574 C   0  0  0  0  0  0  0  0  0  0  0  0
    1.3492   -1.3530    0.9531 H   0  0  0  0  0  0  0  0  0  0  0  0
    1.5948   -5.9598    1.5284 H   0  0  0  0  0  0  0  0  0  0  0  0
   -2.3060   -5.0909   -0.0013 H   0  0  0  0  0  0  0  0  0  0  0  0
   -1.5914   -1.7078   -0.8044 H   0  0  0  0  0  0  0  0  0  0  0  0
   -3.7189   -1.4639   -2.0020 H   0  0  0  0  0  0  0  0  0  0  0  0
   -7.2872   -2.7472    0.0153 H   0  0  0  0  0  0  0  0  0  0  0  0
   -5.8096   -5.0007    2.0974 H   0  0  0  0  0  0  0  0  0  0  0  0
   -7.1692   -3.8748    2.1305 H   0  0  0  0  0  0  0  0  0  0  0  0
   -6.2527   -1.5617    3.0412 H   0  0  0  0  0  0  0  0  0  0  0  0
   -3.6848   -2.6914    5.4078 H   0  0  0  0  0  0  0  0  0  0  0  0
   -4.2588    0.2830    8.1643 H   0  0  0  0  0  0  0  0  0  0  0  0
   -6.1653    1.9009    8.0027 H   0  0  0  0  0  0  0  0  0  0  0  0
   -8.1829    2.6953    6.8335 H   0  0  0  0  0  0  0  0  0  0  0  0
   -8.9243    1.5906    4.7431 H   0  0  0  0  0  0  0  0  0  0  0  0
   -7.6735   -0.2847    3.8248 H   0  0  0  0  0  0  0  0  0  0  0  0
   -3.4282   -3.5161    1.7632 H   0  0  0  0  0  0  0  0  0  0  0  0
  1  2  1  0  0  0  0
  1 34  1  0  0  0  0
  2  3  2  0  0  0  0
  2 11  1  0  0  0  0
  3  4  1  0  0  0  0
  3  7  1  0  0  0  0
  4  5  1  0  0  0  0
  4  6  2  0  0  0  0
  7  8  2  0  0  0  0
  7 35  1  0  0  0  0
  8  9  1  0  0  0  0
  8 10  1  0  0  0  0
 10 11  2  0  0  0  0
 10 36  1  0  0  0  0
 11 12  1  0  0  0  0
 12 13  1  0  0  0  0
 12 37  1  0  0  0  0
 13 14  2  0  0  0  0
 13 33  1  0  0  0  0
 14 15  1  0  0  0  0
 14 38  1  0  0  0  0
 15 16  1  0  0  0  0
 15 17  2  0  0  0  0
 17 18  1  0  0  0  0
 17 39  1  0  0  0  0
 18 19  1  0  0  0  0
 18 33  2  0  0  0  0
 19 20  1  0  0  0  0
 19 40  1  0  0  0  0
 19 41  1  0  0  0  0
 20 21  2  0  0  0  0
 20 22  1  0  0  0  0
 22 23  1  0  0  0  0
 22 42  1  0  0  0  0
 23 24  2  0  0  0  0
 23 32  1  0  0  0  0
 24 25  1  0  0  0  0
 24 43  1  0  0  0  0
 25 26  2  0  0  0  0
 26 27  1  0  0  0  0
 26 44  1  0  0  0  0
 27 28  2  0  0  0  0
 27 32  1  0  0  0  0
 28 29  1  0  0  0  0
 28 45  1  0  0  0  0
 29 30  2  0  0  0  0
 29 46  1  0  0  0  0
 30 31  1  0  0  0  0
 30 47  1  0  0  0  0
 31 32  2  0  0  0  0
 31 48  1  0  0  0  0
 33 49  1  0  0  0  0
M  CHG  2   4   1   5  -1
M  END
$$$$
