
 OpenBabel07202414153D

 59 62  0  0  1  0  0  0  0  0999 V2000
    1.7294   -1.9834    0.1136 C   0  0  0  0  0  0  0  0  0  0  0  0
    3.0215   -2.2614    0.6422 O   0  0  0  0  0  0  0  0  0  0  0  0
    3.5178   -1.3905    1.5724 C   0  0  0  0  0  0  0  0  0  0  0  0
    2.8967   -0.2367    2.0405 C   0  0  0  0  0  0  0  0  0  0  0  0
    3.5127    0.5436    3.0351 C   0  0  0  0  0  0  0  0  0  0  0  0
    4.7692    0.2089    3.5647 C   0  0  0  0  0  0  0  0  0  0  0  0
    5.3364    0.9574    4.6544 N   0  0  0  0  0  0  0  0  0  0  0  0
    6.7134    1.5216    4.5377 C   0  0  3  0  0  0  0  0  0  0  0  0
    7.8958    0.6305    5.0690 C   0  0  0  0  0  0  0  0  0  0  0  0
    8.0483   -0.5502    4.7651 O   0  0  0  0  0  0  0  0  0  0  0  0
    8.8334    1.3038    5.8452 N   0  0  0  0  0  0  0  0  0  0  0  0
   10.1059    0.7072    6.2276 C   0  0  0  0  0  0  0  0  0  0  0  0
   10.5474    1.1327    7.6306 C   0  0  0  0  0  0  0  0  0  0  0  0
   11.8825    0.5488    8.0255 C   0  0  0  0  0  0  0  0  0  0  0  0
   11.9552   -0.7002    8.6631 C   0  0  0  0  0  0  0  0  0  0  0  0
   13.1870   -1.2434    9.0318 C   0  0  0  0  0  0  0  0  0  0  0  0
   14.3662   -0.5482    8.7670 C   0  0  0  0  0  0  0  0  0  0  0  0
   14.2977    0.6848    8.1298 C   0  0  0  0  0  0  0  0  0  0  0  0
   15.4288    1.3564    7.8739 F   0  0  0  0  0  0  0  0  0  0  0  0
   13.0748    1.2361    7.7560 C   0  0  0  0  0  0  0  0  0  0  0  0
    7.0951    2.1606    3.2058 C   0  0  0  0  0  0  0  0  0  0  0  0
    7.7729    1.4651    2.1983 C   0  0  0  0  0  0  0  0  0  0  0  0
    8.3003    2.1541    1.1121 C   0  0  0  0  0  0  0  0  0  0  0  0
    8.1205    3.5235    1.0509 C   0  0  0  0  0  0  0  0  0  0  0  0
    7.4277    4.2298    1.9695 N   0  0  0  0  0  0  0  0  0  0  0  0
    6.9266    3.5343    3.0132 C   0  0  0  0  0  0  0  0  0  0  0  0
    4.5248    1.1775    5.8121 C   0  0  0  0  0  0  0  0  0  0  0  0
    3.3408    0.8377    5.8501 O   0  0  0  0  0  0  0  0  0  0  0  0
    5.0921    1.8557    6.9796 C   0  0  0  0  0  0  0  0  0  0  0  0
    4.4720    2.5757    7.9895 C   0  0  0  0  0  0  0  0  0  0  0  0
    5.4957    3.0830    8.8288 C   0  0  0  0  0  0  0  0  0  0  0  0
    6.6713    2.5757    8.3389 C   0  0  0  0  0  0  0  0  0  0  0  0
    6.4325    1.8082    7.2505 O   0  0  0  0  0  0  0  0  0  0  0  0
    5.3925   -0.9392    3.0654 C   0  0  0  0  0  0  0  0  0  0  0  0
    4.7685   -1.7306    2.0897 C   0  0  0  0  0  0  0  0  0  0  0  0
    1.4788   -2.7803   -0.5933 H   0  0  0  0  0  0  0  0  0  0  0  0
    1.7263   -1.0378   -0.4384 H   0  0  0  0  0  0  0  0  0  0  0  0
    0.9660   -1.9866    0.8985 H   0  0  0  0  0  0  0  0  0  0  0  0
    1.9267    0.0797    1.6680 H   0  0  0  0  0  0  0  0  0  0  0  0
    2.9823    1.4254    3.3938 H   0  0  0  0  0  0  0  0  0  0  0  0
    6.7111    2.4011    5.1870 H   0  0  0  0  0  0  0  0  0  0  0  0
    8.6687    2.2754    6.0753 H   0  0  0  0  0  0  0  0  0  0  0  0
   10.8373    1.0403    5.4824 H   0  0  0  0  0  0  0  0  0  0  0  0
   10.0418   -0.3836    6.1581 H   0  0  0  0  0  0  0  0  0  0  0  0
    9.7896    0.8359    8.3671 H   0  0  0  0  0  0  0  0  0  0  0  0
   10.5993    2.2277    7.6934 H   0  0  0  0  0  0  0  0  0  0  0  0
   11.0458   -1.2591    8.8808 H   0  0  0  0  0  0  0  0  0  0  0  0
   13.2309   -2.2101    9.5316 H   0  0  0  0  0  0  0  0  0  0  0  0
   15.3309   -0.9566    9.0501 H   0  0  0  0  0  0  0  0  0  0  0  0
   13.0688    2.2033    7.2623 H   0  0  0  0  0  0  0  0  0  0  0  0
    7.9358    0.3945    2.2737 H   0  0  0  0  0  0  0  0  0  0  0  0
    8.8675    1.6328    0.3491 H   0  0  0  0  0  0  0  0  0  0  0  0
    8.5502    4.1084    0.2430 H   0  0  0  0  0  0  0  0  0  0  0  0
    6.4005    4.1524    3.7428 H   0  0  0  0  0  0  0  0  0  0  0  0
    3.4066    2.7410    8.0790 H   0  0  0  0  0  0  0  0  0  0  0  0
    5.3919    3.7298    9.6888 H   0  0  0  0  0  0  0  0  0  0  0  0
    7.7101    2.6704    8.6287 H   0  0  0  0  0  0  0  0  0  0  0  0
    6.3359   -1.2904    3.4641 H   0  0  0  0  0  0  0  0  0  0  0  0
    5.2569   -2.6424    1.7509 H   0  0  0  0  0  0  0  0  0  0  0  0
  1  2  1  0  0  0  0
  1 36  1  0  0  0  0
  1 37  1  0  0  0  0
  1 38  1  0  0  0  0
  2  3  1  0  0  0  0
  3  4  1  0  0  0  0
  3 35  2  0  0  0  0
  4  5  2  0  0  0  0
  4 39  1  0  0  0  0
  5  6  1  0  0  0  0
  5 40  1  0  0  0  0
  6  7  1  0  0  0  0
  6 34  2  0  0  0  0
  7  8  1  0  0  0  0
  7 27  1  0  0  0  0
  8  9  1  0  0  0  0
  8 21  1  0  0  0  0
  8 41  1  0  0  0  0
  9 10  2  0  0  0  0
  9 11  1  0  0  0  0
 11 12  1  0  0  0  0
 11 42  1  0  0  0  0
 12 13  1  0  0  0  0
 12 43  1  0  0  0  0
 12 44  1  0  0  0  0
 13 14  1  0  0  0  0
 13 45  1  0  0  0  0
 13 46  1  0  0  0  0
 14 15  1  0  0  0  0
 14 20  2  0  0  0  0
 15 16  2  0  0  0  0
 15 47  1  0  0  0  0
 16 17  1  0  0  0  0
 16 48  1  0  0  0  0
 17 18  2  0  0  0  0
 17 49  1  0  0  0  0
 18 19  1  0  0  0  0
 18 20  1  0  0  0  0
 20 50  1  0  0  0  0
 21 22  1  0  0  0  0
 21 26  2  0  0  0  0
 22 23  2  0  0  0  0
 22 51  1  0  0  0  0
 23 24  1  0  0  0  0
 23 52  1  0  0  0  0
 24 25  2  0  0  0  0
 24 53  1  0  0  0  0
 25 26  1  0  0  0  0
 26 54  1  0  0  0  0
 27 28  2  0  0  0  0
 27 29  1  0  0  0  0
 29 30  2  0  0  0  0
 29 33  1  0  0  0  0
 30 31  1  0  0  0  0
 30 55  1  0  0  0  0
 31 32  2  0  0  0  0
 31 56  1  0  0  0  0
 32 33  1  0  0  0  0
 32 57  1  0  0  0  0
 34 35  1  0  0  0  0
 34 58  1  0  0  0  0
 35 59  1  0  0  0  0
M  END
$$$$
