
 OpenBabel07202414183D

 34 36  0  0  0  0  0  0  0  0999 V2000
   -4.5321   -0.2601   -5.4224 F   0  0  0  0  0  0  0  0  0  0  0  0
   -4.0680   -0.6803   -4.2385 C   0  0  0  0  0  0  0  0  0  0  0  0
   -2.8553   -0.1910   -3.7646 C   0  0  0  0  0  0  0  0  0  0  0  0
   -2.3624   -0.6292   -2.5314 C   0  0  0  0  0  0  0  0  0  0  0  0
   -3.0912   -1.5511   -1.7646 C   0  0  0  0  0  0  0  0  0  0  0  0
   -2.5905   -2.0072   -0.4146 C   0  0  0  0  0  0  0  0  0  0  0  0
   -2.1992   -3.4756   -0.3377 C   0  0  0  0  0  0  0  0  0  0  0  0
   -1.0258   -3.8294   -0.4183 O   0  0  0  0  0  0  0  0  0  0  0  0
   -3.2730   -4.3362   -0.1814 N   0  0  0  0  0  0  0  0  0  0  0  0
   -3.1304   -5.7399   -0.0599 C   0  0  0  0  0  0  0  0  0  0  0  0
   -2.1594   -6.2906    0.7788 C   0  0  0  0  0  0  0  0  0  0  0  0
   -2.0012   -7.6152    0.9975 N   0  0  0  0  0  0  0  0  0  0  0  0
   -2.8310   -8.4347    0.3174 C   0  0  0  0  0  0  0  0  0  0  0  0
   -3.8251   -8.0114   -0.5651 C   0  0  0  0  0  0  0  0  0  0  0  0
   -4.6168   -8.9294   -1.2797 C   0  0  0  0  0  0  0  0  0  0  0  0
   -5.5735   -8.4906   -2.1905 C   0  0  0  0  0  0  0  0  0  0  0  0
   -5.7586   -7.1289   -2.3929 C   0  0  0  0  0  0  0  0  0  0  0  0
   -4.9835   -6.2070   -1.6829 C   0  0  0  0  0  0  0  0  0  0  0  0
   -3.9992   -6.6203   -0.7551 C   0  0  0  0  0  0  0  0  0  0  0  0
   -4.3208   -1.9987   -2.2638 C   0  0  0  0  0  0  0  0  0  0  0  0
   -5.0662   -2.8355   -1.5280 F   0  0  0  0  0  0  0  0  0  0  0  0
   -4.8095   -1.5859   -3.4970 C   0  0  0  0  0  0  0  0  0  0  0  0
   -2.3031    0.5319   -4.3583 H   0  0  0  0  0  0  0  0  0  0  0  0
   -1.4127   -0.2357   -2.1730 H   0  0  0  0  0  0  0  0  0  0  0  0
   -3.3470   -1.7934    0.3498 H   0  0  0  0  0  0  0  0  0  0  0  0
   -1.7041   -1.4270   -0.1267 H   0  0  0  0  0  0  0  0  0  0  0  0
   -4.1709   -3.9894   -0.4989 H   0  0  0  0  0  0  0  0  0  0  0  0
   -1.4838   -5.6609    1.3515 H   0  0  0  0  0  0  0  0  0  0  0  0
   -2.6591   -9.4929    0.5010 H   0  0  0  0  0  0  0  0  0  0  0  0
   -4.4765   -9.9998   -1.1418 H   0  0  0  0  0  0  0  0  0  0  0  0
   -6.1656   -9.2079   -2.7525 H   0  0  0  0  0  0  0  0  0  0  0  0
   -6.4885   -6.7774   -3.1178 H   0  0  0  0  0  0  0  0  0  0  0  0
   -5.1447   -5.1578   -1.9031 H   0  0  0  0  0  0  0  0  0  0  0  0
   -5.7579   -1.9556   -3.8683 H   0  0  0  0  0  0  0  0  0  0  0  0
  1  2  1  0  0  0  0
  2  3  1  0  0  0  0
  2 22  2  0  0  0  0
  3  4  2  0  0  0  0
  3 23  1  0  0  0  0
  4  5  1  0  0  0  0
  4 24  1  0  0  0  0
  5  6  1  0  0  0  0
  5 20  2  0  0  0  0
  6  7  1  0  0  0  0
  6 25  1  0  0  0  0
  6 26  1  0  0  0  0
  7  8  2  0  0  0  0
  7  9  1  0  0  0  0
  9 10  1  0  0  0  0
  9 27  1  0  0  0  0
 10 11  1  0  0  0  0
 10 19  2  0  0  0  0
 11 12  2  0  0  0  0
 11 28  1  0  0  0  0
 12 13  1  0  0  0  0
 13 14  2  0  0  0  0
 13 29  1  0  0  0  0
 14 15  1  0  0  0  0
 14 19  1  0  0  0  0
 15 16  2  0  0  0  0
 15 30  1  0  0  0  0
 16 17  1  0  0  0  0
 16 31  1  0  0  0  0
 17 18  2  0  0  0  0
 17 32  1  0  0  0  0
 18 19  1  0  0  0  0
 18 33  1  0  0  0  0
 20 21  1  0  0  0  0
 20 22  1  0  0  0  0
 22 34  1  0  0  0  0
M  END
$$$$
