
 OpenBabel07202414143D

 61 66  0  0  1  0  0  0  0  0999 V2000
    7.8309    2.3341   -1.8935 C   0  0  0  0  0  0  0  0  0  0  0  0
    6.7540    2.1359   -0.9644 N   0  0  0  0  0  0  0  0  0  0  0  0
    5.5855    1.5162   -1.3395 C   0  0  0  0  0  0  0  0  0  0  0  0
    5.3746    1.0980   -2.4716 O   0  0  0  0  0  0  0  0  0  0  0  0
    4.5487    1.3491   -0.2286 C   0  0  0  0  0  0  0  0  0  0  0  0
    5.0455    1.5196    1.1490 N   0  0  0  0  0  0  0  0  0  0  0  0
    5.5051    0.3198    1.8268 C   0  0  0  0  0  0  0  0  0  0  0  0
    6.5088    0.5346    2.9620 C   0  0  3  0  0  0  0  0  0  0  0  0
    6.4980   -0.7390    3.8540 C   0  0  0  0  0  0  0  0  0  0  0  0
    7.8810   -1.3262    3.6953 C   0  0  0  0  0  0  0  0  0  0  0  0
    8.7085   -0.1966    3.3649 N   0  0  0  0  0  0  0  0  0  0  0  0
   10.1125   -0.1921    3.6003 C   0  0  0  0  0  0  0  0  0  0  0  0
   11.0139    0.2591    2.6411 C   0  0  0  0  0  0  0  0  0  0  0  0
   12.3572    0.0996    2.7263 N   0  0  0  0  0  0  0  0  0  0  0  0
   12.8344   -0.5018    3.8393 C   0  0  0  0  0  0  0  0  0  0  0  0
   12.0517   -0.8838    4.9273 C   0  0  0  0  0  0  0  0  0  0  0  0
   12.6104   -1.4341    6.1013 C   0  0  0  0  0  0  0  0  0  0  0  0
   11.8002   -1.7817    7.1843 C   0  0  0  0  0  0  0  0  0  0  0  0
   10.4351   -1.5514    7.1188 C   0  0  0  0  0  0  0  0  0  0  0  0
    9.6767   -1.9494    8.1863 O   0  0  0  0  0  0  0  0  0  0  0  0
    8.3805   -2.4312    7.8219 C   0  0  0  0  0  0  0  0  0  0  0  0
    9.9013   -0.9278    5.9926 C   0  0  0  0  0  0  0  0  0  0  0  0
   10.6606   -0.6783    4.8256 C   0  0  0  0  0  0  0  0  0  0  0  0
    7.9806    0.6346    2.4959 C   0  0  0  0  0  0  0  0  0  0  0  0
    8.3944    1.4168    1.6569 O   0  0  0  0  0  0  0  0  0  0  0  0
    6.2147    1.8104    3.7503 C   0  0  0  0  0  0  0  0  0  0  0  0
    6.8836    2.0779    4.9656 C   0  0  0  0  0  0  0  0  0  0  0  0
    6.7153    3.2896    5.6330 C   0  0  0  0  0  0  0  0  0  0  0  0
    7.6074    3.5974    7.0698 Cl  0  0  0  0  0  0  0  0  0  0  0  0
    5.8592    4.2552    5.1189 C   0  0  0  0  0  0  0  0  0  0  0  0
    5.2051    4.0166    3.9065 C   0  0  0  0  0  0  0  0  0  0  0  0
    5.3994    2.8159    3.2066 C   0  0  0  0  0  0  0  0  0  0  0  0
    4.8315    2.7096    1.8333 C   0  0  0  0  0  0  0  0  0  0  0  0
    4.2520    3.6787    1.3541 O   0  0  0  0  0  0  0  0  0  0  0  0
    3.4480    0.3055   -0.4598 C   0  0  0  0  0  0  0  0  0  0  0  0
    3.1195    1.7554   -0.5876 C   0  0  0  0  0  0  0  0  0  0  0  0
    8.5808    2.9795   -1.4314 H   0  0  0  0  0  0  0  0  0  0  0  0
    7.4481    2.7981   -2.8069 H   0  0  0  0  0  0  0  0  0  0  0  0
    8.2704    1.3634   -2.1378 H   0  0  0  0  0  0  0  0  0  0  0  0
    6.9007    2.3559    0.0140 H   0  0  0  0  0  0  0  0  0  0  0  0
    5.9030   -0.3829    1.0848 H   0  0  0  0  0  0  0  0  0  0  0  0
    4.5884   -0.1230    2.2423 H   0  0  0  0  0  0  0  0  0  0  0  0
    5.7507   -1.4819    3.5523 H   0  0  0  0  0  0  0  0  0  0  0  0
    6.2917   -0.5163    4.9068 H   0  0  0  0  0  0  0  0  0  0  0  0
    7.9054   -2.0070    2.8347 H   0  0  0  0  0  0  0  0  0  0  0  0
    8.1763   -1.9095    4.5647 H   0  0  0  0  0  0  0  0  0  0  0  0
   10.6895    0.7295    1.7181 H   0  0  0  0  0  0  0  0  0  0  0  0
   13.9108   -0.6571    3.8389 H   0  0  0  0  0  0  0  0  0  0  0  0
   13.6837   -1.5969    6.1783 H   0  0  0  0  0  0  0  0  0  0  0  0
   12.2350   -2.2256    8.0760 H   0  0  0  0  0  0  0  0  0  0  0  0
    7.9924   -3.0356    8.6461 H   0  0  0  0  0  0  0  0  0  0  0  0
    8.4180   -3.0717    6.9314 H   0  0  0  0  0  0  0  0  0  0  0  0
    7.6896   -1.5963    7.6623 H   0  0  0  0  0  0  0  0  0  0  0  0
    8.8673   -0.6051    6.0320 H   0  0  0  0  0  0  0  0  0  0  0  0
    7.5966    1.3668    5.3774 H   0  0  0  0  0  0  0  0  0  0  0  0
    5.7311    5.2040    5.6286 H   0  0  0  0  0  0  0  0  0  0  0  0
    4.5768    4.8013    3.4886 H   0  0  0  0  0  0  0  0  0  0  0  0
    3.0186   -0.2186    0.3841 H   0  0  0  0  0  0  0  0  0  0  0  0
    3.4824   -0.2853   -1.3692 H   0  0  0  0  0  0  0  0  0  0  0  0
    2.4932    2.2063    0.1720 H   0  0  0  0  0  0  0  0  0  0  0  0
    2.9432    2.1539   -1.5818 H   0  0  0  0  0  0  0  0  0  0  0  0
  1  2  1  0  0  0  0
  1 37  1  0  0  0  0
  1 38  1  0  0  0  0
  1 39  1  0  0  0  0
  2  3  1  0  0  0  0
  2 40  1  0  0  0  0
  3  4  2  0  0  0  0
  3  5  1  0  0  0  0
  5  6  1  0  0  0  0
  5 35  1  0  0  0  0
  5 36  1  0  0  0  0
  6  7  1  0  0  0  0
  6 33  1  0  0  0  0
  7  8  1  0  0  0  0
  7 41  1  0  0  0  0
  7 42  1  0  0  0  0
  8  9  1  0  0  0  0
  8 24  1  0  0  0  0
  8 26  1  0  0  0  0
  9 10  1  0  0  0  0
  9 43  1  0  0  0  0
  9 44  1  0  0  0  0
 10 11  1  0  0  0  0
 10 45  1  0  0  0  0
 10 46  1  0  0  0  0
 11 12  1  0  0  0  0
 11 24  1  0  0  0  0
 12 13  1  0  0  0  0
 12 23  2  0  0  0  0
 13 14  2  0  0  0  0
 13 47  1  0  0  0  0
 14 15  1  0  0  0  0
 15 16  2  0  0  0  0
 15 48  1  0  0  0  0
 16 17  1  0  0  0  0
 16 23  1  0  0  0  0
 17 18  2  0  0  0  0
 17 49  1  0  0  0  0
 18 19  1  0  0  0  0
 18 50  1  0  0  0  0
 19 20  1  0  0  0  0
 19 22  2  0  0  0  0
 20 21  1  0  0  0  0
 21 51  1  0  0  0  0
 21 52  1  0  0  0  0
 21 53  1  0  0  0  0
 22 23  1  0  0  0  0
 22 54  1  0  0  0  0
 24 25  2  0  0  0  0
 26 27  1  0  0  0  0
 26 32  2  0  0  0  0
 27 28  2  0  0  0  0
 27 55  1  0  0  0  0
 28 29  1  0  0  0  0
 28 30  1  0  0  0  0
 30 31  2  0  0  0  0
 30 56  1  0  0  0  0
 31 32  1  0  0  0  0
 31 57  1  0  0  0  0
 32 33  1  0  0  0  0
 33 34  2  0  0  0  0
 35 36  1  0  0  0  0
 35 58  1  0  0  0  0
 35 59  1  0  0  0  0
 36 60  1  0  0  0  0
 36 61  1  0  0  0  0
M  END
$$$$
