
 OpenBabel07202414123D

 69 73  0  0  1  0  0  0  0  0999 V2000
    5.7943   -1.0799   -2.6513 C   0  0  0  0  0  0  0  0  0  0  0  0
    6.4746   -1.0825   -1.2763 C   0  0  0  0  0  0  0  0  0  0  0  0
    7.6826   -2.0217   -1.2512 C   0  0  0  0  0  0  0  0  0  0  0  0
    6.9752    0.2485   -1.0625 O   0  0  0  0  0  0  0  0  0  0  0  0
    5.4501   -1.4245   -0.1954 C   0  0  0  0  0  0  0  0  0  0  0  0
    4.7846   -2.6546   -0.1676 C   0  0  0  0  0  0  0  0  0  0  0  0
    3.7860   -2.9007    0.7790 C   0  0  0  0  0  0  0  0  0  0  0  0
    3.4038   -1.9067    1.6980 C   0  0  0  0  0  0  0  0  0  0  0  0
    2.3914   -2.1277    2.6304 C   0  0  0  0  0  0  0  0  0  0  0  0
    1.9510   -1.2093    3.5133 N   0  0  0  0  0  0  0  0  0  0  0  0
    2.5351    0.0113    3.4571 C   0  0  0  0  0  0  0  0  0  0  0  0
    3.5616    0.3621    2.5797 C   0  0  0  0  0  0  0  0  0  0  0  0
    4.1187    1.6709    2.5189 N   0  0  0  0  0  0  0  0  0  0  0  0
    3.8063    2.7554    3.3284 C   0  0  0  0  0  0  0  0  0  0  0  0
    2.9277    2.7456    4.1811 O   0  0  0  0  0  0  0  0  0  0  0  0
    4.6631    4.0024    3.0502 C   0  0  3  0  0  0  0  0  0  0  0  0
    6.1474    3.7097    3.3106 C   0  0  0  0  0  0  0  0  0  0  0  0
    6.3436    3.4379    4.7619 N   0  0  0  0  0  0  0  0  0  0  0  0
    7.7755    2.6242    5.1534 S   0  0  0  0  0  0  0  0  0  0  0  0
    8.0606    1.6884    4.0859 O   0  0  0  0  0  0  0  0  0  0  0  0
    8.7360    3.6339    5.5347 O   0  0  0  0  0  0  0  0  0  0  0  0
    7.3019    1.6436    6.5932 C   0  0  0  0  0  0  0  0  0  0  0  0
    8.4832    0.7988    7.1232 C   0  0  0  0  0  0  0  0  0  0  0  0
    9.6110    1.6890    7.6680 C   0  0  0  0  0  0  0  0  0  0  0  0
    8.9832   -0.3323    6.1596 C   0  0  0  0  0  0  0  0  0  0  0  0
    9.1878   -1.4467    7.5182 S   0  0  0  0  0  0  0  0  0  0  0  0
    8.5567   -2.7266    7.2594 O   0  0  0  0  0  0  0  0  0  0  0  0
   10.4880   -1.3310    8.1419 O   0  0  0  0  0  0  0  0  0  0  0  0
    8.0245   -0.2771    8.1685 C   0  0  0  0  0  0  0  0  0  0  0  0
    6.0831    4.6681    5.5680 C   0  0  0  0  0  0  0  0  0  0  0  0
    4.8717    5.4630    5.1175 C   0  0  0  0  0  0  0  0  0  0  0  0
    4.4241    6.5329    5.9084 C   0  0  0  0  0  0  0  0  0  0  0  0
    3.3306    7.3025    5.5079 C   0  0  0  0  0  0  0  0  0  0  0  0
    2.6809    7.0124    4.3115 C   0  0  0  0  0  0  0  0  0  0  0  0
    1.3304    7.9598    3.8223 Cl  0  0  0  0  0  0  0  0  0  0  0  0
    3.1164    5.9613    3.5068 C   0  0  0  0  0  0  0  0  0  0  0  0
    4.2186    5.1842    3.8989 C   0  0  0  0  0  0  0  0  0  0  0  0
    4.0316   -0.6434    1.6888 C   0  0  0  0  0  0  0  0  0  0  0  0
    5.0887   -0.4627    0.7655 C   0  0  0  0  0  0  0  0  0  0  0  0
    6.4913   -0.7599   -3.4339 H   0  0  0  0  0  0  0  0  0  0  0  0
    4.9635   -0.3631   -2.6661 H   0  0  0  0  0  0  0  0  0  0  0  0
    5.3998   -2.0633   -2.9256 H   0  0  0  0  0  0  0  0  0  0  0  0
    8.4294   -1.7102   -1.9916 H   0  0  0  0  0  0  0  0  0  0  0  0
    7.4105   -3.0613   -1.4585 H   0  0  0  0  0  0  0  0  0  0  0  0
    8.1837   -1.9867   -0.2762 H   0  0  0  0  0  0  0  0  0  0  0  0
    7.4879    0.5015   -1.8483 H   0  0  0  0  0  0  0  0  0  0  0  0
    5.0193   -3.4332   -0.8897 H   0  0  0  0  0  0  0  0  0  0  0  0
    3.2850   -3.8674    0.7770 H   0  0  0  0  0  0  0  0  0  0  0  0
    1.8821   -3.0865    2.6973 H   0  0  0  0  0  0  0  0  0  0  0  0
    2.1063    0.7107    4.1658 H   0  0  0  0  0  0  0  0  0  0  0  0
    4.8069    1.8249    1.7987 H   0  0  0  0  0  0  0  0  0  0  0  0
    4.5440    4.2663    1.9902 H   0  0  0  0  0  0  0  0  0  0  0  0
    6.7715    4.5626    3.0124 H   0  0  0  0  0  0  0  0  0  0  0  0
    6.4655    2.8543    2.7089 H   0  0  0  0  0  0  0  0  0  0  0  0
    6.4768    0.9973    6.2713 H   0  0  0  0  0  0  0  0  0  0  0  0
    6.9346    2.3245    7.3669 H   0  0  0  0  0  0  0  0  0  0  0  0
   10.1159    2.2263    6.8620 H   0  0  0  0  0  0  0  0  0  0  0  0
   10.3928    1.1216    8.1772 H   0  0  0  0  0  0  0  0  0  0  0  0
    9.2194    2.4188    8.3842 H   0  0  0  0  0  0  0  0  0  0  0  0
    9.9112   -0.1232    5.6197 H   0  0  0  0  0  0  0  0  0  0  0  0
    8.2361   -0.7105    5.4543 H   0  0  0  0  0  0  0  0  0  0  0  0
    8.1928   -0.0334    9.2215 H   0  0  0  0  0  0  0  0  0  0  0  0
    6.9985   -0.6421    8.0520 H   0  0  0  0  0  0  0  0  0  0  0  0
    6.9435    5.3443    5.4907 H   0  0  0  0  0  0  0  0  0  0  0  0
    5.9440    4.3789    6.6149 H   0  0  0  0  0  0  0  0  0  0  0  0
    4.9237    6.7719    6.8452 H   0  0  0  0  0  0  0  0  0  0  0  0
    2.9890    8.1221    6.1345 H   0  0  0  0  0  0  0  0  0  0  0  0
    2.5849    5.7349    2.5854 H   0  0  0  0  0  0  0  0  0  0  0  0
    5.6598    0.4598    0.7694 H   0  0  0  0  0  0  0  0  0  0  0  0
  1  2  1  0  0  0  0
  1 40  1  0  0  0  0
  1 41  1  0  0  0  0
  1 42  1  0  0  0  0
  2  3  1  0  0  0  0
  2  4  1  0  0  0  0
  2  5  1  0  0  0  0
  3 43  1  0  0  0  0
  3 44  1  0  0  0  0
  3 45  1  0  0  0  0
  4 46  1  0  0  0  0
  5  6  1  0  0  0  0
  5 39  2  0  0  0  0
  6  7  2  0  0  0  0
  6 47  1  0  0  0  0
  7  8  1  0  0  0  0
  7 48  1  0  0  0  0
  8  9  1  0  0  0  0
  8 38  2  0  0  0  0
  9 10  2  0  0  0  0
  9 49  1  0  0  0  0
 10 11  1  0  0  0  0
 11 12  2  0  0  0  0
 11 50  1  0  0  0  0
 12 13  1  0  0  0  0
 12 38  1  0  0  0  0
 13 14  1  0  0  0  0
 13 51  1  0  0  0  0
 14 15  2  0  0  0  0
 14 16  1  0  0  0  0
 16 17  1  0  0  0  0
 16 37  1  0  0  0  0
 16 52  1  0  0  0  0
 17 18  1  0  0  0  0
 17 53  1  0  0  0  0
 17 54  1  0  0  0  0
 18 19  1  0  0  0  0
 18 30  1  0  0  0  0
 19 20  2  0  0  0  0
 19 21  2  0  0  0  0
 19 22  1  0  0  0  0
 22 23  1  0  0  0  0
 22 55  1  0  0  0  0
 22 56  1  0  0  0  0
 23 24  1  0  0  0  0
 23 25  1  0  0  0  0
 23 29  1  0  0  0  0
 24 57  1  0  0  0  0
 24 58  1  0  0  0  0
 24 59  1  0  0  0  0
 25 26  1  0  0  0  0
 25 60  1  0  0  0  0
 25 61  1  0  0  0  0
 26 27  2  0  0  0  0
 26 28  2  0  0  0  0
 26 29  1  0  0  0  0
 29 62  1  0  0  0  0
 29 63  1  0  0  0  0
 30 31  1  0  0  0  0
 30 64  1  0  0  0  0
 30 65  1  0  0  0  0
 31 32  1  0  0  0  0
 31 37  2  0  0  0  0
 32 33  2  0  0  0  0
 32 66  1  0  0  0  0
 33 34  1  0  0  0  0
 33 67  1  0  0  0  0
 34 35  1  0  0  0  0
 34 36  2  0  0  0  0
 36 37  1  0  0  0  0
 36 68  1  0  0  0  0
 38 39  1  0  0  0  0
 39 69  1  0  0  0  0
M  END
$$$$
