
 OpenBabel07202414133D

 58 61  0  0  1  0  0  0  0  0999 V2000
   10.1559   -3.4485   -1.4383 C   0  0  0  0  0  0  0  0  0  0  0  0
    9.0225   -3.6523   -2.4251 C   0  0  0  0  0  0  0  0  0  0  0  0
    8.7077   -2.3736   -2.9995 O   0  0  0  0  0  0  0  0  0  0  0  0
    7.7759   -1.6414   -2.3348 C   0  0  0  0  0  0  0  0  0  0  0  0
    7.0634   -2.0694   -1.4340 O   0  0  0  0  0  0  0  0  0  0  0  0
    7.8420   -0.1819   -2.7353 C   0  0  1  0  0  0  0  0  0  0  0  0
    8.2435    0.0386   -4.2025 C   0  0  0  0  0  0  0  0  0  0  0  0
    8.2118    1.5250   -4.5592 C   0  0  0  0  0  0  0  0  0  0  0  0
    6.8420    2.1188   -4.2546 C   0  0  0  0  0  0  0  0  0  0  0  0
    6.5070    1.8836   -2.8487 N   0  0  0  0  0  0  0  0  0  0  0  0
    6.4207    2.9204   -1.9363 C   0  0  0  0  0  0  0  0  0  0  0  0
    7.2095    4.0730   -2.0461 C   0  0  0  0  0  0  0  0  0  0  0  0
    7.0837    5.1285   -1.1403 C   0  0  0  0  0  0  0  0  0  0  0  0
    8.0652    6.5306   -1.3316 Cl  0  0  0  0  0  0  0  0  0  0  0  0
    6.1612    5.0682   -0.1006 C   0  0  0  0  0  0  0  0  0  0  0  0
    5.3422    3.9441    0.0334 C   0  0  0  0  0  0  0  0  0  0  0  0
    4.2700    3.9013    1.0990 C   0  0  0  0  0  0  0  0  0  0  0  0
    4.7102    3.4316    2.4731 C   0  0  0  0  0  0  0  0  0  0  0  0
    4.4060    4.0660    3.4831 O   0  0  0  0  0  0  0  0  0  0  0  0
    5.4124    2.2403    2.4805 N   0  0  0  0  0  0  0  0  0  0  0  0
    5.8555    1.6100    3.6696 C   0  0  0  0  0  0  0  0  0  0  0  0
    5.0238    1.5183    4.7903 C   0  0  0  0  0  0  0  0  0  0  0  0
    5.3611    0.8919    5.9394 N   0  0  0  0  0  0  0  0  0  0  0  0
    6.6013    0.3604    5.9903 C   0  0  0  0  0  0  0  0  0  0  0  0
    7.5296    0.4080    4.9457 C   0  0  0  0  0  0  0  0  0  0  0  0
    8.8258   -0.1235    5.0870 C   0  0  0  0  0  0  0  0  0  0  0  0
    9.7501   -0.0263    4.0510 C   0  0  0  0  0  0  0  0  0  0  0  0
    9.3940    0.5912    2.8626 C   0  0  0  0  0  0  0  0  0  0  0  0
    8.1101    1.1124    2.7054 C   0  0  0  0  0  0  0  0  0  0  0  0
    7.1437    1.0357    3.7403 C   0  0  0  0  0  0  0  0  0  0  0  0
    5.4958    2.8789   -0.8768 C   0  0  0  0  0  0  0  0  0  0  0  0
    6.4934    0.4794   -2.4165 C   0  0  0  0  0  0  0  0  0  0  0  0
   10.4416   -4.3859   -0.9580 H   0  0  0  0  0  0  0  0  0  0  0  0
    9.8747   -2.7241   -0.6657 H   0  0  0  0  0  0  0  0  0  0  0  0
   11.0315   -3.0306   -1.9505 H   0  0  0  0  0  0  0  0  0  0  0  0
    8.1523   -4.1160   -1.9475 H   0  0  0  0  0  0  0  0  0  0  0  0
    9.3420   -4.3150   -3.2363 H   0  0  0  0  0  0  0  0  0  0  0  0
    8.6158    0.2709   -2.0998 H   0  0  0  0  0  0  0  0  0  0  0  0
    7.5698   -0.5175   -4.8668 H   0  0  0  0  0  0  0  0  0  0  0  0
    9.2540   -0.3463   -4.3864 H   0  0  0  0  0  0  0  0  0  0  0  0
    8.4506    1.6581   -5.6198 H   0  0  0  0  0  0  0  0  0  0  0  0
    8.9846    2.0514   -3.9844 H   0  0  0  0  0  0  0  0  0  0  0  0
    6.0848    1.6287   -4.8794 H   0  0  0  0  0  0  0  0  0  0  0  0
    6.8131    3.1792   -4.5282 H   0  0  0  0  0  0  0  0  0  0  0  0
    7.9486    4.1566   -2.8372 H   0  0  0  0  0  0  0  0  0  0  0  0
    6.0608    5.9099    0.5821 H   0  0  0  0  0  0  0  0  0  0  0  0
    3.4395    3.2616    0.7767 H   0  0  0  0  0  0  0  0  0  0  0  0
    3.8501    4.9095    1.2096 H   0  0  0  0  0  0  0  0  0  0  0  0
    5.8905    1.9939    1.6244 H   0  0  0  0  0  0  0  0  0  0  0  0
    4.0170    1.9271    4.7845 H   0  0  0  0  0  0  0  0  0  0  0  0
    6.8435   -0.1149    6.9373 H   0  0  0  0  0  0  0  0  0  0  0  0
    9.1255   -0.5978    6.0195 H   0  0  0  0  0  0  0  0  0  0  0  0
   10.7562   -0.4185    4.1797 H   0  0  0  0  0  0  0  0  0  0  0  0
   10.1187    0.6934    2.0575 H   0  0  0  0  0  0  0  0  0  0  0  0
    7.8899    1.6188    1.7690 H   0  0  0  0  0  0  0  0  0  0  0  0
    4.8283    2.0220   -0.7949 H   0  0  0  0  0  0  0  0  0  0  0  0
    5.6766   -0.0433   -2.9308 H   0  0  0  0  0  0  0  0  0  0  0  0
    6.2953    0.3843   -1.3421 H   0  0  0  0  0  0  0  0  0  0  0  0
  1  2  1  0  0  0  0
  1 33  1  0  0  0  0
  1 34  1  0  0  0  0
  1 35  1  0  0  0  0
  2  3  1  0  0  0  0
  2 36  1  0  0  0  0
  2 37  1  0  0  0  0
  3  4  1  0  0  0  0
  4  5  2  0  0  0  0
  6  7  1  0  0  0  0
  6 32  1  0  0  0  0
  6  4  1  0  0  0  0
  6 38  1  1  0  0  0
  7  8  1  0  0  0  0
  7 39  1  0  0  0  0
  7 40  1  0  0  0  0
  8  9  1  0  0  0  0
  8 41  1  0  0  0  0
  8 42  1  0  0  0  0
  9 10  1  0  0  0  0
  9 43  1  0  0  0  0
  9 44  1  0  0  0  0
 10 11  1  0  0  0  0
 10 32  1  0  0  0  0
 11 12  1  0  0  0  0
 11 31  2  0  0  0  0
 12 13  2  0  0  0  0
 12 45  1  0  0  0  0
 13 14  1  0  0  0  0
 13 15  1  0  0  0  0
 15 16  2  0  0  0  0
 15 46  1  0  0  0  0
 16 17  1  0  0  0  0
 16 31  1  0  0  0  0
 17 18  1  0  0  0  0
 17 47  1  0  0  0  0
 17 48  1  0  0  0  0
 18 19  2  0  0  0  0
 18 20  1  0  0  0  0
 20 21  1  0  0  0  0
 20 49  1  0  0  0  0
 21 22  1  0  0  0  0
 21 30  2  0  0  0  0
 22 23  2  0  0  0  0
 22 50  1  0  0  0  0
 23 24  1  0  0  0  0
 24 25  2  0  0  0  0
 24 51  1  0  0  0  0
 25 26  1  0  0  0  0
 25 30  1  0  0  0  0
 26 27  2  0  0  0  0
 26 52  1  0  0  0  0
 27 28  1  0  0  0  0
 27 53  1  0  0  0  0
 28 29  2  0  0  0  0
 28 54  1  0  0  0  0
 29 30  1  0  0  0  0
 29 55  1  0  0  0  0
 31 56  1  0  0  0  0
 32 57  1  0  0  0  0
 32 58  1  0  0  0  0
M  END
$$$$
