
 OpenBabel07202414143D

 66 69  0  0  1  0  0  0  0  0999 V2000
    5.8618    2.9906    6.9927 C   0  0  0  0  0  0  0  0  0  0  0  0
    6.6733    2.2763    6.0648 O   0  0  0  0  0  0  0  0  0  0  0  0
    6.3020    0.9791    5.8572 C   0  0  0  0  0  0  0  0  0  0  0  0
    5.3416    0.4567    6.4408 O   0  0  0  0  0  0  0  0  0  0  0  0
    7.2143    0.2781    4.8244 C   0  0  3  0  0  0  0  0  0  0  0  0
    6.5349   -0.3188    3.5714 C   0  0  0  0  0  0  0  0  0  0  0  0
    7.4884   -1.5330    3.6817 C   0  0  3  0  0  0  0  0  0  0  0  0
    8.7008   -1.4275    2.8343 N   0  0  0  0  0  0  0  0  0  0  0  0
    8.6307   -1.7551    1.5000 C   0  0  0  0  0  0  0  0  0  0  0  0
    7.5775   -2.1521    0.9923 O   0  0  0  0  0  0  0  0  0  0  0  0
    9.9399   -1.6728    0.6609 C   0  0  3  0  0  0  0  0  0  0  0  0
   10.7182   -0.3922    0.9000 N   0  0  0  0  0  0  0  0  0  0  0  0
   11.7473   -0.0655    1.8205 C   0  0  0  0  0  0  0  0  0  0  0  0
   12.2398    1.0647    1.8748 O   0  0  0  0  0  0  0  0  0  0  0  0
   12.3135   -1.0261    2.7549 C   0  0  0  0  0  0  0  0  0  0  0  0
   13.6372   -0.9754    3.1565 C   0  0  0  0  0  0  0  0  0  0  0  0
   13.8675   -2.0035    4.0132 O   0  0  0  0  0  0  0  0  0  0  0  0
   12.6499   -2.6031    4.1235 C   0  0  0  0  0  0  0  0  0  0  0  0
   11.6755   -2.0517    3.4213 N   0  0  0  0  0  0  0  0  0  0  0  0
   10.1868    0.7646    0.1798 C   0  0  0  0  0  0  0  0  0  0  0  0
   11.0572    1.6362   -0.4820 C   0  0  0  0  0  0  0  0  0  0  0  0
   10.6053    2.8363   -1.0477 C   0  0  0  0  0  0  0  0  0  0  0  0
    9.2574    3.2123   -0.9918 C   0  0  0  0  0  0  0  0  0  0  0  0
    8.7453    4.5389   -1.5819 C   0  0  0  0  0  0  0  0  0  0  0  0
    9.8565    5.3743   -2.2587 C   0  0  0  0  0  0  0  0  0  0  0  0
    7.6698    4.2503   -2.6498 C   0  0  0  0  0  0  0  0  0  0  0  0
    8.1242    5.4255   -0.4796 C   0  0  0  0  0  0  0  0  0  0  0  0
    8.3776    2.3115   -0.3690 C   0  0  0  0  0  0  0  0  0  0  0  0
    8.8290    1.1048    0.1937 C   0  0  0  0  0  0  0  0  0  0  0  0
   10.5807   -3.0585    0.5405 C   0  0  0  0  0  0  0  0  0  0  0  0
   11.8969   -3.4035    0.8218 C   0  0  0  0  0  0  0  0  0  0  0  0
   12.2595   -4.7435    0.9883 C   0  0  0  0  0  0  0  0  0  0  0  0
   11.3277   -5.7227    0.7099 C   0  0  0  0  0  0  0  0  0  0  0  0
   10.1012   -5.4466    0.2398 N   0  0  0  0  0  0  0  0  0  0  0  0
    9.7602   -4.1369    0.1666 C   0  0  0  0  0  0  0  0  0  0  0  0
    7.6986   -1.1598    5.1582 C   0  0  0  0  0  0  0  0  0  0  0  0
    6.2711    3.9964    7.0986 H   0  0  0  0  0  0  0  0  0  0  0  0
    5.8776    2.5048    7.9709 H   0  0  0  0  0  0  0  0  0  0  0  0
    4.8357    3.0721    6.6159 H   0  0  0  0  0  0  0  0  0  0  0  0
    8.0664    0.9184    4.5450 H   0  0  0  0  0  0  0  0  0  0  0  0
    6.6156    0.2898    2.6680 H   0  0  0  0  0  0  0  0  0  0  0  0
    5.4787   -0.5800    3.7122 H   0  0  0  0  0  0  0  0  0  0  0  0
    6.9941   -2.5017    3.5437 H   0  0  0  0  0  0  0  0  0  0  0  0
    9.6269   -1.3578    3.2502 H   0  0  0  0  0  0  0  0  0  0  0  0
    9.5748   -1.5252   -0.3708 H   0  0  0  0  0  0  0  0  0  0  0  0
   14.4770   -0.3335    2.9220 H   0  0  0  0  0  0  0  0  0  0  0  0
   12.6145   -3.4735    4.7651 H   0  0  0  0  0  0  0  0  0  0  0  0
   12.1199    1.4118   -0.5463 H   0  0  0  0  0  0  0  0  0  0  0  0
   11.3557    3.4701   -1.5103 H   0  0  0  0  0  0  0  0  0  0  0  0
   10.3318    4.8222   -3.0780 H   0  0  0  0  0  0  0  0  0  0  0  0
   10.6366    5.6596   -1.5422 H   0  0  0  0  0  0  0  0  0  0  0  0
    9.4561    6.3019   -2.6833 H   0  0  0  0  0  0  0  0  0  0  0  0
    8.0671    3.6100   -3.4466 H   0  0  0  0  0  0  0  0  0  0  0  0
    7.3143    5.1779   -3.1120 H   0  0  0  0  0  0  0  0  0  0  0  0
    6.7933    3.7469   -2.2276 H   0  0  0  0  0  0  0  0  0  0  0  0
    8.8621    5.6826    0.2891 H   0  0  0  0  0  0  0  0  0  0  0  0
    7.2798    4.9397    0.0204 H   0  0  0  0  0  0  0  0  0  0  0  0
    7.7482    6.3664   -0.9022 H   0  0  0  0  0  0  0  0  0  0  0  0
    7.3166    2.5448   -0.2874 H   0  0  0  0  0  0  0  0  0  0  0  0
    8.0824    0.5039    0.6994 H   0  0  0  0  0  0  0  0  0  0  0  0
   12.6625   -2.6589    0.9788 H   0  0  0  0  0  0  0  0  0  0  0  0
   13.2448   -5.0109    1.3543 H   0  0  0  0  0  0  0  0  0  0  0  0
   11.5490   -6.7758    0.8542 H   0  0  0  0  0  0  0  0  0  0  0  0
    8.7454   -3.9836   -0.2008 H   0  0  0  0  0  0  0  0  0  0  0  0
    8.7235   -1.2396    5.5348 H   0  0  0  0  0  0  0  0  0  0  0  0
    7.0362   -1.7099    5.8363 H   0  0  0  0  0  0  0  0  0  0  0  0
  1  2  1  0  0  0  0
  1 37  1  0  0  0  0
  1 38  1  0  0  0  0
  1 39  1  0  0  0  0
  2  3  1  0  0  0  0
  3  4  2  0  0  0  0
  3  5  1  0  0  0  0
  5  6  1  0  0  0  0
  5 36  1  0  0  0  0
  5 40  1  0  0  0  0
  6  7  1  0  0  0  0
  6 41  1  0  0  0  0
  6 42  1  0  0  0  0
  7  8  1  0  0  0  0
  7 36  1  0  0  0  0
  7 43  1  0  0  0  0
  8  9  1  0  0  0  0
  8 44  1  0  0  0  0
  9 10  2  0  0  0  0
  9 11  1  0  0  0  0
 11 12  1  0  0  0  0
 11 30  1  0  0  0  0
 11 45  1  0  0  0  0
 12 13  1  0  0  0  0
 12 20  1  0  0  0  0
 13 14  2  0  0  0  0
 13 15  1  0  0  0  0
 15 16  2  0  0  0  0
 15 19  1  0  0  0  0
 16 17  1  0  0  0  0
 16 46  1  0  0  0  0
 17 18  1  0  0  0  0
 18 19  2  0  0  0  0
 18 47  1  0  0  0  0
 20 21  1  0  0  0  0
 20 29  2  0  0  0  0
 21 22  2  0  0  0  0
 21 48  1  0  0  0  0
 22 23  1  0  0  0  0
 22 49  1  0  0  0  0
 23 24  1  0  0  0  0
 23 28  2  0  0  0  0
 24 25  1  0  0  0  0
 24 26  1  0  0  0  0
 24 27  1  0  0  0  0
 25 50  1  0  0  0  0
 25 51  1  0  0  0  0
 25 52  1  0  0  0  0
 26 53  1  0  0  0  0
 26 54  1  0  0  0  0
 26 55  1  0  0  0  0
 27 56  1  0  0  0  0
 27 57  1  0  0  0  0
 27 58  1  0  0  0  0
 28 29  1  0  0  0  0
 28 59  1  0  0  0  0
 29 60  1  0  0  0  0
 30 31  1  0  0  0  0
 30 35  2  0  0  0  0
 31 32  2  0  0  0  0
 31 61  1  0  0  0  0
 32 33  1  0  0  0  0
 32 62  1  0  0  0  0
 33 34  2  0  0  0  0
 33 63  1  0  0  0  0
 34 35  1  0  0  0  0
 35 64  1  0  0  0  0
 36 65  1  0  0  0  0
 36 66  1  0  0  0  0
M  END
$$$$
