
 OpenBabel07202414133D

 59 63  0  0  0  0  0  0  0  0999 V2000
    7.1850    9.5854   -4.8294 C   0  0  0  0  0  0  0  0  0  0  0  0
    7.5832    8.2863   -4.2471 C   0  0  0  0  0  0  0  0  0  0  0  0
    7.0101    7.0439   -4.4146 C   0  0  0  0  0  0  0  0  0  0  0  0
    7.7548    6.1648   -3.6581 N   0  0  0  0  0  0  0  0  0  0  0  0
    7.5561    4.7615   -3.5117 C   0  0  0  0  0  0  0  0  0  0  0  0
    6.5618    4.0946   -4.2401 C   0  0  0  0  0  0  0  0  0  0  0  0
    6.3887    2.7048   -4.1154 C   0  0  0  0  0  0  0  0  0  0  0  0
    5.3471    1.9798   -4.9348 C   0  0  0  0  0  0  0  0  0  0  0  0
    4.6572    2.7984   -5.7773 F   0  0  0  0  0  0  0  0  0  0  0  0
    5.8879    1.0085   -5.7199 F   0  0  0  0  0  0  0  0  0  0  0  0
    4.4111    1.3643   -4.1626 F   0  0  0  0  0  0  0  0  0  0  0  0
    7.2231    1.9826   -3.2422 C   0  0  0  0  0  0  0  0  0  0  0  0
    8.2368    2.6266   -2.5273 C   0  0  0  0  0  0  0  0  0  0  0  0
    9.1046    1.8740   -1.6967 N   0  0  0  0  0  0  0  0  0  0  0  0
   10.4656    2.1767   -1.4352 C   0  0  0  0  0  0  0  0  0  0  0  0
   11.0415    1.9146   -0.1787 C   0  0  0  0  0  0  0  0  0  0  0  0
   12.3731    2.2784    0.0979 C   0  0  0  0  0  0  0  0  0  0  0  0
   13.0838    1.9785    1.4008 C   0  0  0  0  0  0  0  0  0  0  0  0
   12.2446    1.9499    2.6570 C   0  0  0  0  0  0  0  0  0  0  0  0
   11.9754    0.8877    3.2183 O   0  0  0  0  0  0  0  0  0  0  0  0
   11.8393    3.2028    3.1012 N   0  0  0  0  0  0  0  0  0  0  0  0
   11.0738    3.2921    4.2907 C   0  0  0  0  0  0  0  0  0  0  0  0
   11.5963    2.8032    5.4900 C   0  0  0  0  0  0  0  0  0  0  0  0
   10.9267    2.7800    6.6630 N   0  0  0  0  0  0  0  0  0  0  0  0
    9.6244    3.1221    6.6006 C   0  0  0  0  0  0  0  0  0  0  0  0
    8.9669    3.5245    5.4344 C   0  0  0  0  0  0  0  0  0  0  0  0
    7.5710    3.6532    5.3819 C   0  0  0  0  0  0  0  0  0  0  0  0
    6.9401    4.0595    4.2073 C   0  0  0  0  0  0  0  0  0  0  0  0
    7.7009    4.4324    3.1058 C   0  0  0  0  0  0  0  0  0  0  0  0
    9.0871    4.2789    3.1352 C   0  0  0  0  0  0  0  0  0  0  0  0
    9.7365    3.7365    4.2691 C   0  0  0  0  0  0  0  0  0  0  0  0
   13.1407    2.8601   -0.9249 C   0  0  0  0  0  0  0  0  0  0  0  0
   12.5930    3.0790   -2.1834 C   0  0  0  0  0  0  0  0  0  0  0  0
   13.5525    3.7802   -3.4253 Cl  0  0  0  0  0  0  0  0  0  0  0  0
   11.2737    2.7311   -2.4396 C   0  0  0  0  0  0  0  0  0  0  0  0
    8.3706    4.0166   -2.6516 C   0  0  0  0  0  0  0  0  0  0  0  0
    8.7453    6.9314   -3.0836 C   0  0  0  0  0  0  0  0  0  0  0  0
    8.6630    8.2008   -3.4117 N   0  0  0  0  0  0  0  0  0  0  0  0
    6.2267    9.5083   -5.3520 H   0  0  0  0  0  0  0  0  0  0  0  0
    7.9398    9.9271   -5.5438 H   0  0  0  0  0  0  0  0  0  0  0  0
    7.0854   10.3398   -4.0430 H   0  0  0  0  0  0  0  0  0  0  0  0
    6.1506    6.7472   -4.9956 H   0  0  0  0  0  0  0  0  0  0  0  0
    5.9153    4.6283   -4.9328 H   0  0  0  0  0  0  0  0  0  0  0  0
    7.1023    0.9045   -3.1575 H   0  0  0  0  0  0  0  0  0  0  0  0
    8.6149    1.4515   -0.9154 H   0  0  0  0  0  0  0  0  0  0  0  0
   10.4459    1.4169    0.5873 H   0  0  0  0  0  0  0  0  0  0  0  0
   13.8721    2.7238    1.5725 H   0  0  0  0  0  0  0  0  0  0  0  0
   13.5848    1.0072    1.3082 H   0  0  0  0  0  0  0  0  0  0  0  0
   11.6158    3.8489    2.3560 H   0  0  0  0  0  0  0  0  0  0  0  0
   12.6065    2.4046    5.5442 H   0  0  0  0  0  0  0  0  0  0  0  0
    9.0954    3.0487    7.5477 H   0  0  0  0  0  0  0  0  0  0  0  0
    6.9629    3.3719    6.2396 H   0  0  0  0  0  0  0  0  0  0  0  0
    5.8550    4.0852    4.1543 H   0  0  0  0  0  0  0  0  0  0  0  0
    7.2149    4.8104    2.2101 H   0  0  0  0  0  0  0  0  0  0  0  0
    9.6478    4.5649    2.2504 H   0  0  0  0  0  0  0  0  0  0  0  0
   14.1815    3.1223   -0.7487 H   0  0  0  0  0  0  0  0  0  0  0  0
   10.8722    2.8852   -3.4383 H   0  0  0  0  0  0  0  0  0  0  0  0
    9.1352    4.5021   -2.0499 H   0  0  0  0  0  0  0  0  0  0  0  0
    9.5177    6.5314   -2.4426 H   0  0  0  0  0  0  0  0  0  0  0  0
  1  2  1  0  0  0  0
  1 39  1  0  0  0  0
  1 40  1  0  0  0  0
  1 41  1  0  0  0  0
  2  3  2  0  0  0  0
  2 38  1  0  0  0  0
  3  4  1  0  0  0  0
  3 42  1  0  0  0  0
  4  5  1  0  0  0  0
  4 37  1  0  0  0  0
  5  6  2  0  0  0  0
  5 36  1  0  0  0  0
  6  7  1  0  0  0  0
  6 43  1  0  0  0  0
  7  8  1  0  0  0  0
  7 12  2  0  0  0  0
  8  9  1  0  0  0  0
  8 10  1  0  0  0  0
  8 11  1  0  0  0  0
 12 13  1  0  0  0  0
 12 44  1  0  0  0  0
 13 14  1  0  0  0  0
 13 36  2  0  0  0  0
 14 15  1  0  0  0  0
 14 45  1  0  0  0  0
 15 16  2  0  0  0  0
 15 35  1  0  0  0  0
 16 17  1  0  0  0  0
 16 46  1  0  0  0  0
 17 18  1  0  0  0  0
 17 32  2  0  0  0  0
 18 19  1  0  0  0  0
 18 47  1  0  0  0  0
 18 48  1  0  0  0  0
 19 20  2  0  0  0  0
 19 21  1  0  0  0  0
 21 22  1  0  0  0  0
 21 49  1  0  0  0  0
 22 23  2  0  0  0  0
 22 31  1  0  0  0  0
 23 24  1  0  0  0  0
 23 50  1  0  0  0  0
 24 25  2  0  0  0  0
 25 26  1  0  0  0  0
 25 51  1  0  0  0  0
 26 27  2  0  0  0  0
 26 31  1  0  0  0  0
 27 28  1  0  0  0  0
 27 52  1  0  0  0  0
 28 29  2  0  0  0  0
 28 53  1  0  0  0  0
 29 30  1  0  0  0  0
 29 54  1  0  0  0  0
 30 31  2  0  0  0  0
 30 55  1  0  0  0  0
 32 33  1  0  0  0  0
 32 56  1  0  0  0  0
 33 34  1  0  0  0  0
 33 35  2  0  0  0  0
 35 57  1  0  0  0  0
 36 58  1  0  0  0  0
 37 38  2  0  0  0  0
 37 59  1  0  0  0  0
M  END
$$$$
