
 OpenBabel07202414173D

 31 32  0  0  0  0  0  0  0  0999 V2000
    0.9706    0.1207   -0.2608 Cl  0  0  0  0  0  0  0  0  0  0  0  0
    2.7173    0.3309   -0.4966 C   0  0  0  0  0  0  0  0  0  0  0  0
    3.3203    1.2965    0.5151 C   0  0  0  0  0  0  0  0  0  0  0  0
    2.6368    1.9196    1.3286 O   0  0  0  0  0  0  0  0  0  0  0  0
    4.7061    1.4358    0.4871 N   0  0  0  0  0  0  0  0  0  0  0  0
    5.6035    0.8626   -0.5225 C   0  0  0  0  0  0  0  0  0  0  0  0
    6.8337    0.2189    0.1418 C   0  0  0  0  0  0  0  0  0  0  0  0
    7.5785    1.1167    1.0528 N   0  0  0  0  0  0  0  0  0  0  0  0
    8.2757    2.2181    0.3682 C   0  0  0  0  0  0  0  0  0  0  0  0
    9.2835    1.7092   -0.6250 C   0  0  0  0  0  0  0  0  0  0  0  0
    9.2233    1.9608   -2.0388 C   0  0  0  0  0  0  0  0  0  0  0  0
   10.2758    1.4031   -2.7266 C   0  0  0  0  0  0  0  0  0  0  0  0
   11.3469    0.5715   -1.6877 S   0  0  0  0  0  0  0  0  0  0  0  0
   10.4058    0.9615   -0.3144 C   0  0  0  0  0  0  0  0  0  0  0  0
    6.6272    1.6602    2.0564 C   0  0  0  0  0  0  0  0  0  0  0  0
    5.3601    2.3164    1.4615 C   0  0  0  0  0  0  0  0  0  0  0  0
    2.8723    0.7127   -1.5087 H   0  0  0  0  0  0  0  0  0  0  0  0
    3.1746   -0.6558   -0.3837 H   0  0  0  0  0  0  0  0  0  0  0  0
    5.9021    1.6773   -1.1921 H   0  0  0  0  0  0  0  0  0  0  0  0
    5.0957    0.1180   -1.1380 H   0  0  0  0  0  0  0  0  0  0  0  0
    7.4892   -0.2115   -0.6225 H   0  0  0  0  0  0  0  0  0  0  0  0
    6.4900   -0.6404    0.7348 H   0  0  0  0  0  0  0  0  0  0  0  0
    8.8210    2.8148    1.1114 H   0  0  0  0  0  0  0  0  0  0  0  0
    7.5815    2.9008   -0.1342 H   0  0  0  0  0  0  0  0  0  0  0  0
    8.4403    2.5328   -2.5254 H   0  0  0  0  0  0  0  0  0  0  0  0
   10.4709    1.4463   -3.7892 H   0  0  0  0  0  0  0  0  0  0  0  0
   10.7144    0.6191    0.6643 H   0  0  0  0  0  0  0  0  0  0  0  0
    7.1372    2.3694    2.7196 H   0  0  0  0  0  0  0  0  0  0  0  0
    6.3120    0.8276    2.6998 H   0  0  0  0  0  0  0  0  0  0  0  0
    5.6121    3.2469    0.9399 H   0  0  0  0  0  0  0  0  0  0  0  0
    4.6767    2.5796    2.2750 H   0  0  0  0  0  0  0  0  0  0  0  0
  1  2  1  0  0  0  0
  2  3  1  0  0  0  0
  2 17  1  0  0  0  0
  2 18  1  0  0  0  0
  3  4  2  0  0  0  0
  3  5  1  0  0  0  0
  5  6  1  0  0  0  0
  5 16  1  0  0  0  0
  6  7  1  0  0  0  0
  6 19  1  0  0  0  0
  6 20  1  0  0  0  0
  7  8  1  0  0  0  0
  7 21  1  0  0  0  0
  7 22  1  0  0  0  0
  8  9  1  0  0  0  0
  8 15  1  0  0  0  0
  9 10  1  0  0  0  0
  9 23  1  0  0  0  0
  9 24  1  0  0  0  0
 10 11  1  0  0  0  0
 10 14  2  0  0  0  0
 11 12  2  0  0  0  0
 11 25  1  0  0  0  0
 12 13  1  0  0  0  0
 12 26  1  0  0  0  0
 13 14  1  0  0  0  0
 14 27  1  0  0  0  0
 15 16  1  0  0  0  0
 15 28  1  0  0  0  0
 15 29  1  0  0  0  0
 16 30  1  0  0  0  0
 16 31  1  0  0  0  0
M  END
$$$$
