
 OpenBabel07202414123D

 64 67  0  0  1  0  0  0  0  0999 V2000
    3.2867   -0.7698   -0.6146 C   0  0  0  0  0  0  0  0  0  0  0  0
    2.2809   -0.2651    0.4491 C   0  0  0  0  0  0  0  0  0  0  0  0
    0.8542   -0.4665   -0.0980 C   0  0  0  0  0  0  0  0  0  0  0  0
    2.4437   -1.1930    1.6782 C   0  0  0  0  0  0  0  0  0  0  0  0
    2.5276    1.2200    0.7893 C   0  0  0  0  0  0  0  0  0  0  0  0
    3.1037    2.1127   -0.1365 C   0  0  0  0  0  0  0  0  0  0  0  0
    3.4679    3.4244    0.2096 C   0  0  0  0  0  0  0  0  0  0  0  0
    3.2495    3.9103    1.4966 C   0  0  0  0  0  0  0  0  0  0  0  0
    3.7860    5.1976    1.9021 N   0  0  0  0  0  0  0  0  0  0  0  0
    4.4762    5.2910    3.2406 C   0  0  3  0  0  0  0  0  0  0  0  0
    3.4617    5.6881    4.3503 C   0  0  0  0  0  0  0  0  0  0  0  0
    3.7658    5.7720    5.5428 O   0  0  0  0  0  0  0  0  0  0  0  0
    2.1676    5.9221    3.9145 N   0  0  0  0  0  0  0  0  0  0  0  0
    1.0605    6.1285    4.8173 C   0  0  0  0  0  0  0  0  0  0  0  0
   -0.1087    6.8184    4.1006 C   0  0  3  0  0  0  0  0  0  0  0  0
    0.2798    8.1628    3.5163 C   0  0  0  0  0  0  0  0  0  0  0  0
    0.1717    9.0900    4.7070 C   0  0  0  0  0  0  0  0  0  0  0  0
   -0.8033    8.5199    5.5925 O   0  0  0  0  0  0  0  0  0  0  0  0
   -1.1814    7.2293    5.0917 C   0  0  0  0  0  0  0  0  0  0  0  0
    5.3545    4.0871    3.6002 C   0  0  0  0  0  0  0  0  0  0  0  0
    4.9088    3.0251    4.3964 C   0  0  0  0  0  0  0  0  0  0  0  0
    5.6626    1.8598    4.5054 C   0  0  0  0  0  0  0  0  0  0  0  0
    6.8837    1.8098    3.8604 C   0  0  0  0  0  0  0  0  0  0  0  0
    7.4186    2.8568    3.2000 N   0  0  0  0  0  0  0  0  0  0  0  0
    6.6494    3.9689    3.0923 C   0  0  0  0  0  0  0  0  0  0  0  0
    3.5251    6.3268    1.0717 C   0  0  0  0  0  0  0  0  0  0  0  0
    2.8331    6.2224    0.0550 O   0  0  0  0  0  0  0  0  0  0  0  0
    3.9627    7.6772    1.4647 C   0  0  0  0  0  0  0  0  0  0  0  0
    3.6797    8.8170    0.7263 C   0  0  0  0  0  0  0  0  0  0  0  0
    4.1961    9.8983    1.3619 O   0  0  0  0  0  0  0  0  0  0  0  0
    4.7759    9.3735    2.4740 C   0  0  0  0  0  0  0  0  0  0  0  0
    4.6491    8.0653    2.5913 N   0  0  0  0  0  0  0  0  0  0  0  0
    2.5320    3.0848    2.3709 C   0  0  0  0  0  0  0  0  0  0  0  0
    2.1919    1.7627    2.0322 C   0  0  0  0  0  0  0  0  0  0  0  0
    3.1318   -1.8269   -0.8484 H   0  0  0  0  0  0  0  0  0  0  0  0
    4.3202   -0.6469   -0.2658 H   0  0  0  0  0  0  0  0  0  0  0  0
    3.1865   -0.2302   -1.5628 H   0  0  0  0  0  0  0  0  0  0  0  0
    0.6650   -1.5249   -0.3497 H   0  0  0  0  0  0  0  0  0  0  0  0
    0.6869    0.1260   -1.0059 H   0  0  0  0  0  0  0  0  0  0  0  0
    0.1010   -0.1611    0.6385 H   0  0  0  0  0  0  0  0  0  0  0  0
    2.2728   -2.2462    1.3982 H   0  0  0  0  0  0  0  0  0  0  0  0
    1.7126   -0.9758    2.4682 H   0  0  0  0  0  0  0  0  0  0  0  0
    3.4418   -1.1276    2.1142 H   0  0  0  0  0  0  0  0  0  0  0  0
    3.3280    1.7992   -1.1522 H   0  0  0  0  0  0  0  0  0  0  0  0
    3.9711    4.0298   -0.5409 H   0  0  0  0  0  0  0  0  0  0  0  0
    5.1952    6.1074    3.1945 H   0  0  0  0  0  0  0  0  0  0  0  0
    1.9559    5.7340    2.9447 H   0  0  0  0  0  0  0  0  0  0  0  0
    1.4002    6.6808    5.6935 H   0  0  0  0  0  0  0  0  0  0  0  0
    0.7395    5.1330    5.1631 H   0  0  0  0  0  0  0  0  0  0  0  0
   -0.5071    6.1453    3.3301 H   0  0  0  0  0  0  0  0  0  0  0  0
   -0.4565    8.4538    2.7577 H   0  0  0  0  0  0  0  0  0  0  0  0
    1.2647    8.2001    3.0436 H   0  0  0  0  0  0  0  0  0  0  0  0
   -0.1395   10.0972    4.4171 H   0  0  0  0  0  0  0  0  0  0  0  0
    1.1215    9.1610    5.2474 H   0  0  0  0  0  0  0  0  0  0  0  0
   -2.1508    7.3435    4.5932 H   0  0  0  0  0  0  0  0  0  0  0  0
   -1.3037    6.5323    5.9259 H   0  0  0  0  0  0  0  0  0  0  0  0
    3.9565    3.0778    4.9147 H   0  0  0  0  0  0  0  0  0  0  0  0
    5.2864    1.0066    5.0557 H   0  0  0  0  0  0  0  0  0  0  0  0
    7.4753    0.8984    3.8571 H   0  0  0  0  0  0  0  0  0  0  0  0
    7.1353    4.7861    2.5640 H   0  0  0  0  0  0  0  0  0  0  0  0
    3.1513    9.0075   -0.1978 H   0  0  0  0  0  0  0  0  0  0  0  0
    5.2717   10.0652    3.1386 H   0  0  0  0  0  0  0  0  0  0  0  0
    2.2100    3.4333    3.3455 H   0  0  0  0  0  0  0  0  0  0  0  0
    1.6781    1.1698    2.7860 H   0  0  0  0  0  0  0  0  0  0  0  0
  1  2  1  0  0  0  0
  1 35  1  0  0  0  0
  1 36  1  0  0  0  0
  1 37  1  0  0  0  0
  2  3  1  0  0  0  0
  2  4  1  0  0  0  0
  2  5  1  0  0  0  0
  3 38  1  0  0  0  0
  3 39  1  0  0  0  0
  3 40  1  0  0  0  0
  4 41  1  0  0  0  0
  4 42  1  0  0  0  0
  4 43  1  0  0  0  0
  5  6  1  0  0  0  0
  5 34  2  0  0  0  0
  6  7  2  0  0  0  0
  6 44  1  0  0  0  0
  7  8  1  0  0  0  0
  7 45  1  0  0  0  0
  8  9  1  0  0  0  0
  8 33  2  0  0  0  0
  9 10  1  0  0  0  0
  9 26  1  0  0  0  0
 10 11  1  0  0  0  0
 10 20  1  0  0  0  0
 10 46  1  0  0  0  0
 11 12  2  0  0  0  0
 11 13  1  0  0  0  0
 13 14  1  0  0  0  0
 13 47  1  0  0  0  0
 14 15  1  0  0  0  0
 14 48  1  0  0  0  0
 14 49  1  0  0  0  0
 15 16  1  0  0  0  0
 15 19  1  0  0  0  0
 15 50  1  0  0  0  0
 16 17  1  0  0  0  0
 16 51  1  0  0  0  0
 16 52  1  0  0  0  0
 17 18  1  0  0  0  0
 17 53  1  0  0  0  0
 17 54  1  0  0  0  0
 18 19  1  0  0  0  0
 19 55  1  0  0  0  0
 19 56  1  0  0  0  0
 20 21  1  0  0  0  0
 20 25  2  0  0  0  0
 21 22  2  0  0  0  0
 21 57  1  0  0  0  0
 22 23  1  0  0  0  0
 22 58  1  0  0  0  0
 23 24  2  0  0  0  0
 23 59  1  0  0  0  0
 24 25  1  0  0  0  0
 25 60  1  0  0  0  0
 26 27  2  0  0  0  0
 26 28  1  0  0  0  0
 28 29  2  0  0  0  0
 28 32  1  0  0  0  0
 29 30  1  0  0  0  0
 29 61  1  0  0  0  0
 30 31  1  0  0  0  0
 31 32  2  0  0  0  0
 31 62  1  0  0  0  0
 33 34  1  0  0  0  0
 33 63  1  0  0  0  0
 34 64  1  0  0  0  0
M  END
$$$$
