
 OpenBabel07202414143D

 53 56  0  0  1  0  0  0  0  0999 V2000
    0.9398   -1.8237   -2.1279 C   0  0  0  0  0  0  0  0  0  0  0  0
    2.3414   -1.8608   -1.8106 N   0  0  0  0  0  0  0  0  0  0  0  0
    2.8641   -1.1345   -0.7652 C   0  0  0  0  0  0  0  0  0  0  0  0
    2.1910   -0.3840   -0.0650 O   0  0  0  0  0  0  0  0  0  0  0  0
    4.3574   -1.3075   -0.5558 C   0  0  0  0  0  0  0  0  0  0  0  0
    4.9148   -2.6319   -1.0338 N   0  0  0  0  0  0  0  0  0  0  0  0
    4.3584   -3.7781   -0.2519 C   0  0  0  0  0  0  0  0  0  0  0  0
    4.6677   -5.1303   -0.9418 C   0  0  3  0  0  0  0  0  0  0  0  0
    4.2074   -6.1993    0.0893 C   0  0  0  0  0  0  0  0  0  0  0  0
    3.7955   -5.2928   -2.2338 C   0  0  0  0  0  0  0  0  0  0  0  0
    2.9687   -6.1960   -2.3272 O   0  0  0  0  0  0  0  0  0  0  0  0
    4.0300   -4.3505   -3.2241 N   0  0  0  0  0  0  0  0  0  0  0  0
    3.5087   -4.3346   -4.5561 C   0  0  0  0  0  0  0  0  0  0  0  0
    2.6882   -5.3448   -5.0671 C   0  0  0  0  0  0  0  0  0  0  0  0
    2.3485   -5.4710   -6.3743 N   0  0  0  0  0  0  0  0  0  0  0  0
    2.7826   -4.5117   -7.2107 C   0  0  0  0  0  0  0  0  0  0  0  0
    3.4645   -3.3684   -6.8033 C   0  0  0  0  0  0  0  0  0  0  0  0
    3.7306   -2.3246   -7.7072 C   0  0  0  0  0  0  0  0  0  0  0  0
    4.3670   -1.1695   -7.2836 C   0  0  0  0  0  0  0  0  0  0  0  0
    4.5959    0.1369   -8.3703 Cl  0  0  0  0  0  0  0  0  0  0  0  0
    4.7946   -1.0564   -5.9632 C   0  0  0  0  0  0  0  0  0  0  0  0
    4.5516   -2.0971   -5.0621 C   0  0  0  0  0  0  0  0  0  0  0  0
    3.8603   -3.2703   -5.4431 C   0  0  0  0  0  0  0  0  0  0  0  0
    6.1645   -5.3160   -1.2609 C   0  0  0  0  0  0  0  0  0  0  0  0
    6.6747   -6.6055   -1.5284 C   0  0  0  0  0  0  0  0  0  0  0  0
    8.0383   -6.8172   -1.7656 C   0  0  0  0  0  0  0  0  0  0  0  0
    8.6245   -8.4165   -2.0050 Cl  0  0  0  0  0  0  0  0  0  0  0  0
    8.9281   -5.7501   -1.7875 C   0  0  0  0  0  0  0  0  0  0  0  0
    8.4529   -4.4628   -1.5601 C   0  0  0  0  0  0  0  0  0  0  0  0
    7.0905   -4.2530   -1.2895 C   0  0  0  0  0  0  0  0  0  0  0  0
    6.6274   -2.5821   -0.9352 S   0  0  0  0  0  0  0  0  0  0  0  0
    7.0650   -1.7514   -2.0320 O   0  0  0  0  0  0  0  0  0  0  0  0
    6.9880   -2.3229    0.4409 O   0  0  0  0  0  0  0  0  0  0  0  0
    0.7355   -2.5741   -2.8943 H   0  0  0  0  0  0  0  0  0  0  0  0
    0.6890   -0.8265   -2.4971 H   0  0  0  0  0  0  0  0  0  0  0  0
    0.3570   -2.0371   -1.2276 H   0  0  0  0  0  0  0  0  0  0  0  0
    2.9578   -2.4495   -2.3554 H   0  0  0  0  0  0  0  0  0  0  0  0
    4.5586   -1.1930    0.5162 H   0  0  0  0  0  0  0  0  0  0  0  0
    4.8417   -0.4901   -1.1022 H   0  0  0  0  0  0  0  0  0  0  0  0
    3.2740   -3.6690   -0.1414 H   0  0  0  0  0  0  0  0  0  0  0  0
    4.7714   -3.7511    0.7659 H   0  0  0  0  0  0  0  0  0  0  0  0
    3.1689   -6.0224    0.3968 H   0  0  0  0  0  0  0  0  0  0  0  0
    4.8307   -6.1751    0.9910 H   0  0  0  0  0  0  0  0  0  0  0  0
    4.2376   -7.2186   -0.3096 H   0  0  0  0  0  0  0  0  0  0  0  0
    4.7402   -3.6591   -3.0209 H   0  0  0  0  0  0  0  0  0  0  0  0
    2.2602   -6.1274   -4.4495 H   0  0  0  0  0  0  0  0  0  0  0  0
    2.5472   -4.6877   -8.2589 H   0  0  0  0  0  0  0  0  0  0  0  0
    3.3946   -2.4008   -8.7452 H   0  0  0  0  0  0  0  0  0  0  0  0
    5.3011   -0.1557   -5.6252 H   0  0  0  0  0  0  0  0  0  0  0  0
    4.8889   -1.9356   -4.0389 H   0  0  0  0  0  0  0  0  0  0  0  0
    6.0177   -7.4741   -1.5350 H   0  0  0  0  0  0  0  0  0  0  0  0
    9.9874   -5.9137   -1.9697 H   0  0  0  0  0  0  0  0  0  0  0  0
    9.1510   -3.6256   -1.5686 H   0  0  0  0  0  0  0  0  0  0  0  0
  1  2  1  0  0  0  0
  1 34  1  0  0  0  0
  1 35  1  0  0  0  0
  1 36  1  0  0  0  0
  2  3  1  0  0  0  0
  2 37  1  0  0  0  0
  3  4  2  0  0  0  0
  3  5  1  0  0  0  0
  5  6  1  0  0  0  0
  5 38  1  0  0  0  0
  5 39  1  0  0  0  0
  6  7  1  0  0  0  0
  6 31  1  0  0  0  0
  7  8  1  0  0  0  0
  7 40  1  0  0  0  0
  7 41  1  0  0  0  0
  8  9  1  0  0  0  0
  8 10  1  0  0  0  0
  8 24  1  0  0  0  0
  9 42  1  0  0  0  0
  9 43  1  0  0  0  0
  9 44  1  0  0  0  0
 10 11  2  0  0  0  0
 10 12  1  0  0  0  0
 12 13  1  0  0  0  0
 12 45  1  0  0  0  0
 13 14  1  0  0  0  0
 13 23  2  0  0  0  0
 14 15  2  0  0  0  0
 14 46  1  0  0  0  0
 15 16  1  0  0  0  0
 16 17  2  0  0  0  0
 16 47  1  0  0  0  0
 17 18  1  0  0  0  0
 17 23  1  0  0  0  0
 18 19  2  0  0  0  0
 18 48  1  0  0  0  0
 19 20  1  0  0  0  0
 19 21  1  0  0  0  0
 21 22  2  0  0  0  0
 21 49  1  0  0  0  0
 22 23  1  0  0  0  0
 22 50  1  0  0  0  0
 24 25  1  0  0  0  0
 24 30  2  0  0  0  0
 25 26  2  0  0  0  0
 25 51  1  0  0  0  0
 26 27  1  0  0  0  0
 26 28  1  0  0  0  0
 28 29  2  0  0  0  0
 28 52  1  0  0  0  0
 29 30  1  0  0  0  0
 29 53  1  0  0  0  0
 30 31  1  0  0  0  0
 31 32  2  0  0  0  0
 31 33  2  0  0  0  0
M  END
$$$$
