
 OpenBabel07202414143D

 57 61  0  0  1  0  0  0  0  0999 V2000
    6.4900    2.7023    0.0358 C   0  0  0  0  0  0  0  0  0  0  0  0
    6.1816    1.4184    0.6405 N   0  0  0  0  0  0  0  0  0  0  0  0
    4.9331    0.8406    0.4899 C   0  0  0  0  0  0  0  0  0  0  0  0
    4.0785    1.3023   -0.2638 O   0  0  0  0  0  0  0  0  0  0  0  0
    4.7600   -0.4341    1.3077 C   0  0  0  0  0  0  0  0  0  0  0  0
    5.4270   -0.3528    2.6298 N   0  0  0  0  0  0  0  0  0  0  0  0
    4.7075    0.6001    3.4879 C   0  0  0  0  0  0  0  0  0  0  0  0
    4.5598    0.2082    4.9647 C   0  0  0  0  0  0  0  0  0  0  0  0
    4.0978    1.2272    5.8110 C   0  0  0  0  0  0  0  0  0  0  0  0
    4.0971    1.0435    7.1851 C   0  0  0  0  0  0  0  0  0  0  0  0
    4.4577   -0.1952    7.7174 C   0  0  0  0  0  0  0  0  0  0  0  0
    4.5677   -0.3428    9.4327 Cl  0  0  0  0  0  0  0  0  0  0  0  0
    4.8516   -1.2653    6.8951 C   0  0  0  0  0  0  0  0  0  0  0  0
    5.0016   -1.0536    5.5119 C   0  0  0  0  0  0  0  0  0  0  0  0
    6.0871   -1.7522    4.6580 C   0  0  3  0  0  0  0  0  0  0  0  0
    6.9924   -3.0193    4.4693 C   0  0  0  0  0  0  0  0  0  0  0  0
    8.1841   -2.5792    3.4714 C   0  0  0  0  0  0  0  0  0  0  0  0
    8.9585   -1.2629    3.8807 C   0  0  0  0  0  0  0  0  0  0  0  0
    8.1116   -0.2901    4.5272 N   0  0  0  0  0  0  0  0  0  0  0  0
    8.5431    0.8714    5.3038 C   0  0  0  0  0  0  0  0  0  0  0  0
    7.5101    1.8072    5.4865 C   0  0  0  0  0  0  0  0  0  0  0  0
    7.2542    2.5295    6.5977 N   0  0  0  0  0  0  0  0  0  0  0  0
    8.1607    2.4082    7.5727 C   0  0  0  0  0  0  0  0  0  0  0  0
    9.3832    1.7710    7.4003 C   0  0  0  0  0  0  0  0  0  0  0  0
   10.3991    2.0078    8.3315 C   0  0  0  0  0  0  0  0  0  0  0  0
   11.6564    1.4571    8.1391 C   0  0  0  0  0  0  0  0  0  0  0  0
   11.8580    0.5621    7.0933 C   0  0  0  0  0  0  0  0  0  0  0  0
   10.8297    0.2662    6.1985 C   0  0  0  0  0  0  0  0  0  0  0  0
    9.5905    0.9358    6.2605 C   0  0  0  0  0  0  0  0  0  0  0  0
    7.2636   -1.0178    5.3439 C   0  0  0  0  0  0  0  0  0  0  0  0
    7.5666   -1.2456    6.5258 O   0  0  0  0  0  0  0  0  0  0  0  0
    5.4094   -1.6661    3.2561 C   0  0  0  0  0  0  0  0  0  0  0  0
    7.5365    2.9449    0.2339 H   0  0  0  0  0  0  0  0  0  0  0  0
    5.8328    3.4563    0.4704 H   0  0  0  0  0  0  0  0  0  0  0  0
    6.3163    2.6448   -1.0372 H   0  0  0  0  0  0  0  0  0  0  0  0
    6.7393    1.0780    1.4163 H   0  0  0  0  0  0  0  0  0  0  0  0
    5.2096   -1.2416    0.6918 H   0  0  0  0  0  0  0  0  0  0  0  0
    3.6912   -0.6480    1.3968 H   0  0  0  0  0  0  0  0  0  0  0  0
    3.7074    0.8187    3.1167 H   0  0  0  0  0  0  0  0  0  0  0  0
    5.2785    1.5330    3.4258 H   0  0  0  0  0  0  0  0  0  0  0  0
    3.8665    2.2121    5.4057 H   0  0  0  0  0  0  0  0  0  0  0  0
    3.8808    1.8912    7.8305 H   0  0  0  0  0  0  0  0  0  0  0  0
    5.2580   -2.1578    7.3661 H   0  0  0  0  0  0  0  0  0  0  0  0
    6.4460   -3.8686    4.0389 H   0  0  0  0  0  0  0  0  0  0  0  0
    7.4383   -3.4018    5.3969 H   0  0  0  0  0  0  0  0  0  0  0  0
    7.7857   -2.4115    2.4630 H   0  0  0  0  0  0  0  0  0  0  0  0
    8.8999   -3.4005    3.3574 H   0  0  0  0  0  0  0  0  0  0  0  0
    9.4003   -0.7901    2.9962 H   0  0  0  0  0  0  0  0  0  0  0  0
    9.7476   -1.5948    4.5511 H   0  0  0  0  0  0  0  0  0  0  0  0
    6.7594    1.9331    4.7236 H   0  0  0  0  0  0  0  0  0  0  0  0
    7.8877    2.8894    8.5093 H   0  0  0  0  0  0  0  0  0  0  0  0
   10.2360    2.6881    9.1655 H   0  0  0  0  0  0  0  0  0  0  0  0
   12.4766    1.7403    8.7917 H   0  0  0  0  0  0  0  0  0  0  0  0
   12.8330    0.0939    6.9709 H   0  0  0  0  0  0  0  0  0  0  0  0
   11.0596   -0.4266    5.4021 H   0  0  0  0  0  0  0  0  0  0  0  0
    4.3635   -2.0231    3.3521 H   0  0  0  0  0  0  0  0  0  0  0  0
    5.7992   -2.4040    2.5447 H   0  0  0  0  0  0  0  0  0  0  0  0
  1  2  1  0  0  0  0
  1 33  1  0  0  0  0
  1 34  1  0  0  0  0
  1 35  1  0  0  0  0
  2  3  1  0  0  0  0
  2 36  1  0  0  0  0
  3  4  2  0  0  0  0
  3  5  1  0  0  0  0
  5  6  1  0  0  0  0
  5 37  1  0  0  0  0
  5 38  1  0  0  0  0
  6  7  1  0  0  0  0
  6 32  1  0  0  0  0
  7  8  1  0  0  0  0
  7 39  1  0  0  0  0
  7 40  1  0  0  0  0
  8  9  1  0  0  0  0
  8 14  2  0  0  0  0
  9 10  2  0  0  0  0
  9 41  1  0  0  0  0
 10 11  1  0  0  0  0
 10 42  1  0  0  0  0
 11 12  1  0  0  0  0
 11 13  2  0  0  0  0
 13 14  1  0  0  0  0
 13 43  1  0  0  0  0
 14 15  1  0  0  0  0
 15 16  1  0  0  0  0
 15 30  1  0  0  0  0
 15 32  1  0  0  0  0
 16 17  1  0  0  0  0
 16 44  1  0  0  0  0
 16 45  1  0  0  0  0
 17 18  1  0  0  0  0
 17 46  1  0  0  0  0
 17 47  1  0  0  0  0
 18 19  1  0  0  0  0
 18 48  1  0  0  0  0
 18 49  1  0  0  0  0
 19 20  1  0  0  0  0
 19 30  1  0  0  0  0
 20 21  1  0  0  0  0
 20 29  2  0  0  0  0
 21 22  2  0  0  0  0
 21 50  1  0  0  0  0
 22 23  1  0  0  0  0
 23 24  2  0  0  0  0
 23 51  1  0  0  0  0
 24 25  1  0  0  0  0
 24 29  1  0  0  0  0
 25 26  2  0  0  0  0
 25 52  1  0  0  0  0
 26 27  1  0  0  0  0
 26 53  1  0  0  0  0
 27 28  2  0  0  0  0
 27 54  1  0  0  0  0
 28 29  1  0  0  0  0
 28 55  1  0  0  0  0
 30 31  2  0  0  0  0
 32 56  1  0  0  0  0
 32 57  1  0  0  0  0
M  END
$$$$
