
 OpenBabel07202414153D

 58 61  0  0  1  0  0  0  0  0999 V2000
    1.1588   -3.1201   -0.0930 C   0  0  0  0  0  0  0  0  0  0  0  0
    1.4046   -4.6671    0.7413 S   0  0  0  0  0  0  0  0  0  0  0  0
    0.2803   -4.8890    1.6311 O   0  0  0  0  0  0  0  0  0  0  0  0
    1.7773   -5.6611   -0.2460 O   0  0  0  0  0  0  0  0  0  0  0  0
    2.8327   -4.3563    1.7507 C   0  0  0  0  0  0  0  0  0  0  0  0
    2.6676   -3.8528    3.0338 C   0  0  0  0  0  0  0  0  0  0  0  0
    3.7949   -3.5978    3.8191 C   0  0  0  0  0  0  0  0  0  0  0  0
    5.1145   -3.8205    3.3495 C   0  0  0  0  0  0  0  0  0  0  0  0
    6.3063   -3.5827    4.0923 C   0  0  0  0  0  0  0  0  0  0  0  0
    6.3903   -3.0031    5.3899 N   0  0  0  0  0  0  0  0  0  0  0  0
    5.7008   -1.8786    5.8167 C   0  0  0  0  0  0  0  0  0  0  0  0
    4.9224   -1.2352    5.1111 O   0  0  0  0  0  0  0  0  0  0  0  0
    6.1034   -1.3957    7.2228 C   0  0  3  0  0  0  0  0  0  0  0  0
    5.5999   -2.3044    8.3450 C   0  0  0  0  0  0  0  0  0  0  0  0
    4.1771   -2.0982    8.5938 N   0  0  0  0  0  0  0  0  0  0  0  0
    3.1731   -3.1566    8.4719 C   0  0  0  0  0  0  0  0  0  0  0  0
    3.5523   -4.4551    7.7538 C   0  0  0  0  0  0  0  0  0  0  0  0
    4.4652   -4.5522    6.9377 O   0  0  0  0  0  0  0  0  0  0  0  0
    2.7564   -5.5423    8.0417 N   0  0  0  0  0  0  0  0  0  0  0  0
    3.0323   -6.8182    7.3826 C   0  0  0  0  0  0  0  0  0  0  0  0
    4.4176   -7.4433    7.6470 C   0  0  0  0  0  0  0  0  0  0  0  0
    5.1272   -6.7718    8.5836 F   0  0  0  0  0  0  0  0  0  0  0  0
    4.2726   -8.7118    8.1052 F   0  0  0  0  0  0  0  0  0  0  0  0
    5.1647   -7.5079    6.5236 F   0  0  0  0  0  0  0  0  0  0  0  0
    3.7284   -0.8187    8.8946 C   0  0  0  0  0  0  0  0  0  0  0  0
    2.6584   -0.5964    9.4487 O   0  0  0  0  0  0  0  0  0  0  0  0
    4.5748    0.2975    8.3758 C   0  0  0  0  0  0  0  0  0  0  0  0
    4.1817    1.6171    8.6355 C   0  0  0  0  0  0  0  0  0  0  0  0
    4.8271    2.6756    7.9950 C   0  0  0  0  0  0  0  0  0  0  0  0
    5.8642    2.4147    7.1002 C   0  0  0  0  0  0  0  0  0  0  0  0
    6.6032    3.7141    6.2492 Cl  0  0  0  0  0  0  0  0  0  0  0  0
    6.2939    1.1104    6.8684 C   0  0  0  0  0  0  0  0  0  0  0  0
    5.6583    0.0325    7.5093 C   0  0  0  0  0  0  0  0  0  0  0  0
    7.5161   -3.9835    3.5182 C   0  0  0  0  0  0  0  0  0  0  0  0
    7.6519   -4.5341    2.2961 N   0  0  0  0  0  0  0  0  0  0  0  0
    6.5152   -4.7153    1.5946 C   0  0  0  0  0  0  0  0  0  0  0  0
    5.2377   -4.3943    2.0572 C   0  0  0  0  0  0  0  0  0  0  0  0
    4.1036   -4.6543    1.2655 C   0  0  0  0  0  0  0  0  0  0  0  0
    0.2909   -3.2207   -0.7487 H   0  0  0  0  0  0  0  0  0  0  0  0
    2.0468   -2.8910   -0.6859 H   0  0  0  0  0  0  0  0  0  0  0  0
    0.9747   -2.3387    0.6485 H   0  0  0  0  0  0  0  0  0  0  0  0
    1.6777   -3.6557    3.4411 H   0  0  0  0  0  0  0  0  0  0  0  0
    3.6259   -3.2232    4.8245 H   0  0  0  0  0  0  0  0  0  0  0  0
    7.2048   -3.2682    5.9299 H   0  0  0  0  0  0  0  0  0  0  0  0
    7.2018   -1.4059    7.2610 H   0  0  0  0  0  0  0  0  0  0  0  0
    6.1055   -2.0103    9.2775 H   0  0  0  0  0  0  0  0  0  0  0  0
    5.8596   -3.3534    8.2078 H   0  0  0  0  0  0  0  0  0  0  0  0
    2.3386   -2.7304    7.8988 H   0  0  0  0  0  0  0  0  0  0  0  0
    2.7950   -3.3786    9.4759 H   0  0  0  0  0  0  0  0  0  0  0  0
    1.9026   -5.4199    8.5740 H   0  0  0  0  0  0  0  0  0  0  0  0
    2.9060   -6.6619    6.3047 H   0  0  0  0  0  0  0  0  0  0  0  0
    2.2489   -7.5092    7.7084 H   0  0  0  0  0  0  0  0  0  0  0  0
    3.3438    1.8199    9.2999 H   0  0  0  0  0  0  0  0  0  0  0  0
    4.4918    3.6953    8.1692 H   0  0  0  0  0  0  0  0  0  0  0  0
    7.0918    0.9228    6.1525 H   0  0  0  0  0  0  0  0  0  0  0  0
    8.4613   -3.8259    4.0333 H   0  0  0  0  0  0  0  0  0  0  0  0
    6.6640   -5.1681    0.6160 H   0  0  0  0  0  0  0  0  0  0  0  0
    4.2189   -5.1011    0.2777 H   0  0  0  0  0  0  0  0  0  0  0  0
  1  2  1  0  0  0  0
  1 39  1  0  0  0  0
  1 40  1  0  0  0  0
  1 41  1  0  0  0  0
  2  3  2  0  0  0  0
  2  4  2  0  0  0  0
  2  5  1  0  0  0  0
  5  6  1  0  0  0  0
  5 38  2  0  0  0  0
  6  7  2  0  0  0  0
  6 42  1  0  0  0  0
  7  8  1  0  0  0  0
  7 43  1  0  0  0  0
  8  9  1  0  0  0  0
  8 37  2  0  0  0  0
  9 10  1  0  0  0  0
  9 34  2  0  0  0  0
 10 11  1  0  0  0  0
 10 44  1  0  0  0  0
 11 12  2  0  0  0  0
 11 13  1  0  0  0  0
 13 14  1  0  0  0  0
 13 33  1  0  0  0  0
 13 45  1  0  0  0  0
 14 15  1  0  0  0  0
 14 46  1  0  0  0  0
 14 47  1  0  0  0  0
 15 16  1  0  0  0  0
 15 25  1  0  0  0  0
 16 17  1  0  0  0  0
 16 48  1  0  0  0  0
 16 49  1  0  0  0  0
 17 18  2  0  0  0  0
 17 19  1  0  0  0  0
 19 20  1  0  0  0  0
 19 50  1  0  0  0  0
 20 21  1  0  0  0  0
 20 51  1  0  0  0  0
 20 52  1  0  0  0  0
 21 22  1  0  0  0  0
 21 23  1  0  0  0  0
 21 24  1  0  0  0  0
 25 26  2  0  0  0  0
 25 27  1  0  0  0  0
 27 28  1  0  0  0  0
 27 33  2  0  0  0  0
 28 29  2  0  0  0  0
 28 53  1  0  0  0  0
 29 30  1  0  0  0  0
 29 54  1  0  0  0  0
 30 31  1  0  0  0  0
 30 32  2  0  0  0  0
 32 33  1  0  0  0  0
 32 55  1  0  0  0  0
 34 35  1  0  0  0  0
 34 56  1  0  0  0  0
 35 36  2  0  0  0  0
 36 37  1  0  0  0  0
 36 57  1  0  0  0  0
 37 38  1  0  0  0  0
 38 58  1  0  0  0  0
M  END
$$$$
