
 OpenBabel07202414123D

 65 68  0  0  1  0  0  0  0  0999 V2000
    2.8736    1.1557    0.4881 C   0  0  0  0  0  0  0  0  0  0  0  0
    1.7789    0.0604    0.5075 C   0  0  0  0  0  0  0  0  0  0  0  0
    0.5582    0.6015    1.2717 C   0  0  0  0  0  0  0  0  0  0  0  0
    1.3818   -0.1772   -0.9682 C   0  0  0  0  0  0  0  0  0  0  0  0
    2.2549   -1.2340    1.1837 C   0  0  0  0  0  0  0  0  0  0  0  0
    3.2957   -1.2418    2.1115 C   0  0  0  0  0  0  0  0  0  0  0  0
    3.8057   -2.4417    2.6392 C   0  0  0  0  0  0  0  0  0  0  0  0
    3.2901   -3.7022    2.3024 C   0  0  0  0  0  0  0  0  0  0  0  0
    3.9171   -4.9629    2.7191 N   0  0  0  0  0  0  0  0  0  0  0  0
    3.4908   -6.2466    2.0778 C   0  0  3  0  0  0  0  0  0  0  0  0
    2.3495   -6.9312    2.8952 C   0  0  0  0  0  0  0  0  0  0  0  0
    1.3461   -6.3374    3.2810 O   0  0  0  0  0  0  0  0  0  0  0  0
    2.5370   -8.2891    3.1022 N   0  0  0  0  0  0  0  0  0  0  0  0
    1.6541   -9.1069    3.9199 C   0  0  0  0  0  0  0  0  0  0  0  0
    2.4598  -10.0454    4.8265 C   0  0  0  0  0  0  0  0  0  0  0  0
    1.5949  -10.9830    5.6286 C   0  0  0  0  0  0  0  0  0  0  0  0
    1.1628  -10.6283    6.9147 C   0  0  0  0  0  0  0  0  0  0  0  0
    0.3609  -11.4982    7.6620 C   0  0  0  0  0  0  0  0  0  0  0  0
   -0.0163  -12.7293    7.1253 C   0  0  0  0  0  0  0  0  0  0  0  0
    0.4089  -13.0789    5.8509 C   0  0  0  0  0  0  0  0  0  0  0  0
    0.0447  -14.2620    5.3374 F   0  0  0  0  0  0  0  0  0  0  0  0
    1.2056  -12.2211    5.0988 C   0  0  0  0  0  0  0  0  0  0  0  0
    3.2826   -6.3094    0.5598 C   0  0  0  0  0  0  0  0  0  0  0  0
    4.3156   -5.9742   -0.3273 C   0  0  0  0  0  0  0  0  0  0  0  0
    4.1858   -6.2557   -1.6877 C   0  0  0  0  0  0  0  0  0  0  0  0
    3.0174   -6.8501   -2.1311 C   0  0  0  0  0  0  0  0  0  0  0  0
    1.9783   -7.1373   -1.3241 N   0  0  0  0  0  0  0  0  0  0  0  0
    2.1294   -6.8586   -0.0089 C   0  0  0  0  0  0  0  0  0  0  0  0
    4.9253   -4.9737    3.7459 C   0  0  0  0  0  0  0  0  0  0  0  0
    5.3497   -3.9570    4.2946 O   0  0  0  0  0  0  0  0  0  0  0  0
    5.5776   -6.2272    4.2045 C   0  0  0  0  0  0  0  0  0  0  0  0
    6.9072   -6.2386    4.7710 C   0  0  0  0  0  0  0  0  0  0  0  0
    7.3743   -7.4190    5.1788 N   0  0  0  0  0  0  0  0  0  0  0  0
    6.1188   -8.4788    4.9100 S   0  0  0  0  0  0  0  0  0  0  0  0
    4.9991   -7.4377    4.2344 N   0  0  0  0  0  0  0  0  0  0  0  0
    2.1432   -3.6641    1.5007 C   0  0  0  0  0  0  0  0  0  0  0  0
    1.6522   -2.4704    0.9333 C   0  0  0  0  0  0  0  0  0  0  0  0
    2.5543    2.0291   -0.0924 H   0  0  0  0  0  0  0  0  0  0  0  0
    3.8012    0.7818    0.0373 H   0  0  0  0  0  0  0  0  0  0  0  0
    3.1098    1.5210    1.4937 H   0  0  0  0  0  0  0  0  0  0  0  0
    0.1916    1.5316    0.8222 H   0  0  0  0  0  0  0  0  0  0  0  0
    0.8049    0.8128    2.3188 H   0  0  0  0  0  0  0  0  0  0  0  0
   -0.2693   -0.1172    1.2674 H   0  0  0  0  0  0  0  0  0  0  0  0
    1.1020    0.7639   -1.4571 H   0  0  0  0  0  0  0  0  0  0  0  0
    0.5206   -0.8458   -1.0675 H   0  0  0  0  0  0  0  0  0  0  0  0
    2.2125   -0.6120   -1.5366 H   0  0  0  0  0  0  0  0  0  0  0  0
    3.7669   -0.3194    2.4414 H   0  0  0  0  0  0  0  0  0  0  0  0
    4.6497   -2.2993    3.3018 H   0  0  0  0  0  0  0  0  0  0  0  0
    4.3559   -6.9096    2.1433 H   0  0  0  0  0  0  0  0  0  0  0  0
    3.4228   -8.6950    2.8231 H   0  0  0  0  0  0  0  0  0  0  0  0
    1.0302   -9.6827    3.2277 H   0  0  0  0  0  0  0  0  0  0  0  0
    0.9962   -8.4655    4.5165 H   0  0  0  0  0  0  0  0  0  0  0  0
    3.0836   -9.4568    5.5114 H   0  0  0  0  0  0  0  0  0  0  0  0
    3.1675  -10.6350    4.2270 H   0  0  0  0  0  0  0  0  0  0  0  0
    1.4533   -9.6720    7.3483 H   0  0  0  0  0  0  0  0  0  0  0  0
    0.0345  -11.2118    8.6586 H   0  0  0  0  0  0  0  0  0  0  0  0
   -0.6418  -13.4109    7.6959 H   0  0  0  0  0  0  0  0  0  0  0  0
    1.5199  -12.5351    4.1093 H   0  0  0  0  0  0  0  0  0  0  0  0
    5.2377   -5.5264    0.0352 H   0  0  0  0  0  0  0  0  0  0  0  0
    4.9875   -6.0401   -2.3857 H   0  0  0  0  0  0  0  0  0  0  0  0
    2.8840   -7.1271   -3.1733 H   0  0  0  0  0  0  0  0  0  0  0  0
    1.2555   -7.1187    0.5852 H   0  0  0  0  0  0  0  0  0  0  0  0
    7.5498   -5.3748    4.8856 H   0  0  0  0  0  0  0  0  0  0  0  0
    1.5634   -4.5533    1.2868 H   0  0  0  0  0  0  0  0  0  0  0  0
    0.7818   -2.5458    0.2856 H   0  0  0  0  0  0  0  0  0  0  0  0
  1  2  1  0  0  0  0
  1 38  1  0  0  0  0
  1 39  1  0  0  0  0
  1 40  1  0  0  0  0
  2  3  1  0  0  0  0
  2  4  1  0  0  0  0
  2  5  1  0  0  0  0
  3 41  1  0  0  0  0
  3 42  1  0  0  0  0
  3 43  1  0  0  0  0
  4 44  1  0  0  0  0
  4 45  1  0  0  0  0
  4 46  1  0  0  0  0
  5  6  1  0  0  0  0
  5 37  2  0  0  0  0
  6  7  2  0  0  0  0
  6 47  1  0  0  0  0
  7  8  1  0  0  0  0
  7 48  1  0  0  0  0
  8  9  1  0  0  0  0
  8 36  2  0  0  0  0
  9 10  1  0  0  0  0
  9 29  1  0  0  0  0
 10 11  1  0  0  0  0
 10 23  1  0  0  0  0
 10 49  1  0  0  0  0
 11 12  2  0  0  0  0
 11 13  1  0  0  0  0
 13 14  1  0  0  0  0
 13 50  1  0  0  0  0
 14 15  1  0  0  0  0
 14 51  1  0  0  0  0
 14 52  1  0  0  0  0
 15 16  1  0  0  0  0
 15 53  1  0  0  0  0
 15 54  1  0  0  0  0
 16 17  1  0  0  0  0
 16 22  2  0  0  0  0
 17 18  2  0  0  0  0
 17 55  1  0  0  0  0
 18 19  1  0  0  0  0
 18 56  1  0  0  0  0
 19 20  2  0  0  0  0
 19 57  1  0  0  0  0
 20 21  1  0  0  0  0
 20 22  1  0  0  0  0
 22 58  1  0  0  0  0
 23 24  1  0  0  0  0
 23 28  2  0  0  0  0
 24 25  2  0  0  0  0
 24 59  1  0  0  0  0
 25 26  1  0  0  0  0
 25 60  1  0  0  0  0
 26 27  2  0  0  0  0
 26 61  1  0  0  0  0
 27 28  1  0  0  0  0
 28 62  1  0  0  0  0
 29 30  2  0  0  0  0
 29 31  1  0  0  0  0
 31 32  1  0  0  0  0
 31 35  2  0  0  0  0
 32 33  2  0  0  0  0
 32 63  1  0  0  0  0
 33 34  1  0  0  0  0
 34 35  1  0  0  0  0
 36 37  1  0  0  0  0
 36 64  1  0  0  0  0
 37 65  1  0  0  0  0
M  END
$$$$
