
 OpenBabel07202414193D

 51 55  0  0  1  0  0  0  0  0999 V2000
    1.0785   -0.3062   -0.4859 O   0  0  0  0  0  0  0  0  0  0  0  0
    2.1716   -0.1085    0.0461 C   0  0  0  0  0  0  0  0  0  0  0  0
    2.6793    1.3185    0.2245 C   0  0  0  0  0  0  0  0  0  0  0  0
    3.4883    1.8715   -0.9328 C   0  0  0  0  0  0  0  0  0  0  0  0
    3.6091    1.1730   -2.1375 C   0  0  0  0  0  0  0  0  0  0  0  0
    4.2921    1.6122   -3.2151 N   0  0  0  0  0  0  0  0  0  0  0  0
    4.8674    2.8268   -3.1098 C   0  0  0  0  0  0  0  0  0  0  0  0
    4.8216    3.6281   -1.9707 C   0  0  0  0  0  0  0  0  0  0  0  0
    5.4450    4.8882   -1.9358 C   0  0  0  0  0  0  0  0  0  0  0  0
    5.4032    5.6689   -0.7834 C   0  0  0  0  0  0  0  0  0  0  0  0
    4.7391    5.1989    0.3424 C   0  0  0  0  0  0  0  0  0  0  0  0
    4.1038    3.9542    0.3119 C   0  0  0  0  0  0  0  0  0  0  0  0
    4.1246    3.1382   -0.8432 C   0  0  0  0  0  0  0  0  0  0  0  0
    2.9980   -1.1452    0.4550 N   0  0  0  0  0  0  0  0  0  0  0  0
    4.3644   -0.9307    0.9331 C   0  0  0  0  0  0  0  0  0  0  0  0
    5.2411   -2.1549    0.9825 C   0  0  0  0  0  0  0  0  0  0  0  0
    6.6343   -2.0003    1.0062 C   0  0  0  0  0  0  0  0  0  0  0  0
    7.4666   -3.1166    1.0206 C   0  0  0  0  0  0  0  0  0  0  0  0
    6.9147   -4.3956    1.0243 C   0  0  0  0  0  0  0  0  0  0  0  0
    5.5295   -4.5619    1.0549 C   0  0  0  0  0  0  0  0  0  0  0  0
    4.6845   -3.4446    1.0502 C   0  0  0  0  0  0  0  0  0  0  0  0
    3.1754   -3.5958    1.0915 C   0  0  1  0  0  0  0  0  0  0  0  0
    2.5368   -3.5683    2.4812 C   0  0  0  0  0  0  0  0  0  0  0  0
    3.0844   -2.8666    3.5672 C   0  0  0  0  0  0  0  0  0  0  0  0
    2.4040   -2.7747    4.7843 C   0  0  0  0  0  0  0  0  0  0  0  0
    1.1718   -3.3999    4.9453 C   0  0  0  0  0  0  0  0  0  0  0  0
    0.6243   -4.1272    3.8924 C   0  0  0  0  0  0  0  0  0  0  0  0
    1.2986   -4.2088    2.6710 C   0  0  0  0  0  0  0  0  0  0  0  0
    2.5564   -2.5190    0.1747 C   0  0  0  0  0  0  0  0  0  0  0  0
    3.2514    1.3781    1.1552 H   0  0  0  0  0  0  0  0  0  0  0  0
    1.7937    1.9533    0.3638 H   0  0  0  0  0  0  0  0  0  0  0  0
    3.1500    0.1988   -2.2915 H   0  0  0  0  0  0  0  0  0  0  0  0
    5.3886    3.1517   -4.0068 H   0  0  0  0  0  0  0  0  0  0  0  0
    5.9667    5.2691   -2.8114 H   0  0  0  0  0  0  0  0  0  0  0  0
    5.8876    6.6417   -0.7655 H   0  0  0  0  0  0  0  0  0  0  0  0
    4.7080    5.8012    1.2469 H   0  0  0  0  0  0  0  0  0  0  0  0
    3.5889    3.6331    1.2139 H   0  0  0  0  0  0  0  0  0  0  0  0
    4.2939   -0.5000    1.9374 H   0  0  0  0  0  0  0  0  0  0  0  0
    4.8427   -0.1931    0.2817 H   0  0  0  0  0  0  0  0  0  0  0  0
    7.0775   -1.0066    1.0018 H   0  0  0  0  0  0  0  0  0  0  0  0
    8.5458   -2.9879    1.0200 H   0  0  0  0  0  0  0  0  0  0  0  0
    7.5664   -5.2653    1.0078 H   0  0  0  0  0  0  0  0  0  0  0  0
    5.1150   -5.5673    1.0684 H   0  0  0  0  0  0  0  0  0  0  0  0
    2.9337   -4.5714    0.6444 H   0  0  0  0  0  0  0  0  0  0  0  0
    4.0447   -2.3670    3.4870 H   0  0  0  0  0  0  0  0  0  0  0  0
    2.8359   -2.2051    5.6031 H   0  0  0  0  0  0  0  0  0  0  0  0
    0.6385   -3.3178    5.8883 H   0  0  0  0  0  0  0  0  0  0  0  0
   -0.3368   -4.6194    4.0159 H   0  0  0  0  0  0  0  0  0  0  0  0
    0.8365   -4.7650    1.8577 H   0  0  0  0  0  0  0  0  0  0  0  0
    1.4616   -2.5694    0.2085 H   0  0  0  0  0  0  0  0  0  0  0  0
    2.8442   -2.7166   -0.8672 H   0  0  0  0  0  0  0  0  0  0  0  0
  1  2  2  0  0  0  0
  2  3  1  0  0  0  0
  2 14  1  0  0  0  0
  3  4  1  0  0  0  0
  3 30  1  0  0  0  0
  3 31  1  0  0  0  0
  4  5  1  0  0  0  0
  4 13  2  0  0  0  0
  5  6  2  0  0  0  0
  5 32  1  0  0  0  0
  6  7  1  0  0  0  0
  7  8  2  0  0  0  0
  7 33  1  0  0  0  0
  8  9  1  0  0  0  0
  8 13  1  0  0  0  0
  9 10  2  0  0  0  0
  9 34  1  0  0  0  0
 10 11  1  0  0  0  0
 10 35  1  0  0  0  0
 11 12  2  0  0  0  0
 11 36  1  0  0  0  0
 12 13  1  0  0  0  0
 12 37  1  0  0  0  0
 14 15  1  0  0  0  0
 14 29  1  0  0  0  0
 15 16  1  0  0  0  0
 15 38  1  0  0  0  0
 15 39  1  0  0  0  0
 16 17  1  0  0  0  0
 16 21  2  0  0  0  0
 17 18  2  0  0  0  0
 17 40  1  0  0  0  0
 18 19  1  0  0  0  0
 18 41  1  0  0  0  0
 19 20  2  0  0  0  0
 19 42  1  0  0  0  0
 20 21  1  0  0  0  0
 20 43  1  0  0  0  0
 21 22  1  0  0  0  0
 22 29  1  0  0  0  0
 22 23  1  0  0  0  0
 22 44  1  6  0  0  0
 23 24  1  0  0  0  0
 23 28  2  0  0  0  0
 24 25  2  0  0  0  0
 24 45  1  0  0  0  0
 25 26  1  0  0  0  0
 25 46  1  0  0  0  0
 26 27  2  0  0  0  0
 26 47  1  0  0  0  0
 27 28  1  0  0  0  0
 27 48  1  0  0  0  0
 28 49  1  0  0  0  0
 29 50  1  0  0  0  0
 29 51  1  0  0  0  0
M  END
$$$$
