
 OpenBabel07202414123D

 48 51  0  0  1  0  0  0  0  0999 V2000
    1.1713    0.0707   -0.3472 C   0  0  0  0  0  0  0  0  0  0  0  0
    2.6973    0.2923   -0.3321 C   0  0  3  0  0  0  0  0  0  0  0  0
    3.1215    1.0221   -1.6361 C   0  0  0  0  0  0  0  0  0  0  0  0
    2.2932    1.2848   -2.5043 O   0  0  0  0  0  0  0  0  0  0  0  0
    4.4755    1.3254   -1.7322 N   0  0  0  0  0  0  0  0  0  0  0  0
    5.1528    1.8850   -2.8578 C   0  0  0  0  0  0  0  0  0  0  0  0
    4.4882    2.2670   -4.0264 C   0  0  0  0  0  0  0  0  0  0  0  0
    5.0973    2.6769   -5.1645 N   0  0  0  0  0  0  0  0  0  0  0  0
    6.4393    2.7585   -5.1367 C   0  0  0  0  0  0  0  0  0  0  0  0
    7.2179    2.5112   -4.0094 C   0  0  0  0  0  0  0  0  0  0  0  0
    8.6107    2.7123   -4.0504 C   0  0  0  0  0  0  0  0  0  0  0  0
    9.4037    2.4421   -2.9388 C   0  0  0  0  0  0  0  0  0  0  0  0
    8.8001    1.9523   -1.7860 C   0  0  0  0  0  0  0  0  0  0  0  0
    9.8139    1.4135   -0.4230 S   0  0  0  0  0  0  0  0  0  0  0  0
    9.9334    2.8381    0.6224 C   0  0  0  0  0  0  0  0  0  0  0  0
    9.0561    0.3993    0.2852 O   0  0  0  0  0  0  0  0  0  0  0  0
   11.1319    1.1266   -0.9530 O   0  0  0  0  0  0  0  0  0  0  0  0
    7.4106    1.7575   -1.7260 C   0  0  0  0  0  0  0  0  0  0  0  0
    6.5730    2.0450   -2.8338 C   0  0  0  0  0  0  0  0  0  0  0  0
    3.3989   -1.0821   -0.3071 C   0  0  0  0  0  0  0  0  0  0  0  0
    3.2769   -1.7441    0.9729 N   0  0  0  0  0  0  0  0  0  0  0  0
    3.4772   -1.0795    2.1580 C   0  0  0  0  0  0  0  0  0  0  0  0
    3.6671   -1.6909    3.2014 O   0  0  0  0  0  0  0  0  0  0  0  0
    3.4237    0.4078    2.1092 C   0  0  0  0  0  0  0  0  0  0  0  0
    3.7007    1.1228    3.2837 C   0  0  0  0  0  0  0  0  0  0  0  0
    3.5638    2.5075    3.3082 C   0  0  0  0  0  0  0  0  0  0  0  0
    3.1416    3.1821    2.1629 C   0  0  0  0  0  0  0  0  0  0  0  0
    2.9173    4.8863    2.2098 Cl  0  0  0  0  0  0  0  0  0  0  0  0
    2.8822    2.4831    0.9822 C   0  0  0  0  0  0  0  0  0  0  0  0
    3.0399    1.0852    0.9327 C   0  0  0  0  0  0  0  0  0  0  0  0
    0.8610   -0.5397   -1.2025 H   0  0  0  0  0  0  0  0  0  0  0  0
    0.6259    1.0233   -0.4162 H   0  0  0  0  0  0  0  0  0  0  0  0
    0.8170   -0.4327    0.5632 H   0  0  0  0  0  0  0  0  0  0  0  0
    5.0505    1.0757   -0.9406 H   0  0  0  0  0  0  0  0  0  0  0  0
    3.4081    2.2652   -4.1174 H   0  0  0  0  0  0  0  0  0  0  0  0
    6.8879    3.0396   -6.0870 H   0  0  0  0  0  0  0  0  0  0  0  0
    9.0886    3.0793   -4.9587 H   0  0  0  0  0  0  0  0  0  0  0  0
   10.4803    2.5888   -2.9952 H   0  0  0  0  0  0  0  0  0  0  0  0
    8.9316    3.1391    0.9337 H   0  0  0  0  0  0  0  0  0  0  0  0
   10.4336    3.6422    0.0797 H   0  0  0  0  0  0  0  0  0  0  0  0
   10.5231    2.5586    1.4979 H   0  0  0  0  0  0  0  0  0  0  0  0
    6.9979    1.3655   -0.8019 H   0  0  0  0  0  0  0  0  0  0  0  0
    4.4759   -0.9965   -0.4933 H   0  0  0  0  0  0  0  0  0  0  0  0
    2.9948   -1.7546   -1.0729 H   0  0  0  0  0  0  0  0  0  0  0  0
    3.3775   -2.7519    1.0373 H   0  0  0  0  0  0  0  0  0  0  0  0
    3.9965    0.5946    4.1883 H   0  0  0  0  0  0  0  0  0  0  0  0
    3.7568    3.0547    4.2281 H   0  0  0  0  0  0  0  0  0  0  0  0
    2.5261    3.0330    0.1125 H   0  0  0  0  0  0  0  0  0  0  0  0
  1  2  1  0  0  0  0
  1 31  1  0  0  0  0
  1 32  1  0  0  0  0
  1 33  1  0  0  0  0
  2  3  1  0  0  0  0
  2 20  1  0  0  0  0
  2 30  1  0  0  0  0
  3  4  2  0  0  0  0
  3  5  1  0  0  0  0
  5  6  1  0  0  0  0
  5 34  1  0  0  0  0
  6  7  1  0  0  0  0
  6 19  2  0  0  0  0
  7  8  2  0  0  0  0
  7 35  1  0  0  0  0
  8  9  1  0  0  0  0
  9 10  2  0  0  0  0
  9 36  1  0  0  0  0
 10 11  1  0  0  0  0
 10 19  1  0  0  0  0
 11 12  2  0  0  0  0
 11 37  1  0  0  0  0
 12 13  1  0  0  0  0
 12 38  1  0  0  0  0
 13 14  1  0  0  0  0
 13 18  2  0  0  0  0
 14 15  1  0  0  0  0
 14 16  2  0  0  0  0
 14 17  2  0  0  0  0
 15 39  1  0  0  0  0
 15 40  1  0  0  0  0
 15 41  1  0  0  0  0
 18 19  1  0  0  0  0
 18 42  1  0  0  0  0
 20 21  1  0  0  0  0
 20 43  1  0  0  0  0
 20 44  1  0  0  0  0
 21 22  1  0  0  0  0
 21 45  1  0  0  0  0
 22 23  2  0  0  0  0
 22 24  1  0  0  0  0
 24 25  1  0  0  0  0
 24 30  2  0  0  0  0
 25 26  2  0  0  0  0
 25 46  1  0  0  0  0
 26 27  1  0  0  0  0
 26 47  1  0  0  0  0
 27 28  1  0  0  0  0
 27 29  2  0  0  0  0
 29 30  1  0  0  0  0
 29 48  1  0  0  0  0
M  END
$$$$
