
 OpenBabel07202414113D

 59 63  0  0  0  0  0  0  0  0999 V2000
    2.3576    4.4502   -1.1808 C   0  0  0  0  0  0  0  0  0  0  0  0
    3.5908    4.1579   -0.7471 C   0  0  0  0  0  0  0  0  0  0  0  0
    3.8137    3.1047    0.2896 C   0  0  0  0  0  0  0  0  0  0  0  0
    2.9619    2.9332    1.1565 O   0  0  0  0  0  0  0  0  0  0  0  0
    5.0072    2.4117    0.1749 N   0  0  0  0  0  0  0  0  0  0  0  0
    6.0505    2.6431   -0.8376 C   0  0  0  0  0  0  0  0  0  0  0  0
    7.1015    1.5467   -0.6561 C   0  0  0  0  0  0  0  0  0  0  0  0
    6.7974    1.0644    0.7273 C   0  0  0  0  0  0  0  0  0  0  0  0
    5.5052    1.4644    1.0983 C   0  0  0  0  0  0  0  0  0  0  0  0
    4.9177    0.9784    2.2510 C   0  0  0  0  0  0  0  0  0  0  0  0
    5.6527    0.0950    3.0508 C   0  0  0  0  0  0  0  0  0  0  0  0
    6.9788   -0.2374    2.7268 C   0  0  0  0  0  0  0  0  0  0  0  0
    7.5729    0.2677    1.5670 C   0  0  0  0  0  0  0  0  0  0  0  0
    8.9618    0.0939    1.3367 N   0  0  0  0  0  0  0  0  0  0  0  0
    9.4933   -1.1951    0.8718 C   0  0  0  0  0  0  0  0  0  0  0  0
    8.5082   -2.2189    0.3708 C   0  0  0  0  0  0  0  0  0  0  0  0
    8.0918   -2.2290   -0.9672 C   0  0  0  0  0  0  0  0  0  0  0  0
    7.1058   -3.1220   -1.3908 C   0  0  0  0  0  0  0  0  0  0  0  0
    6.5309   -4.0119   -0.4824 C   0  0  0  0  0  0  0  0  0  0  0  0
    6.9753   -4.0360    0.8367 C   0  0  0  0  0  0  0  0  0  0  0  0
    6.2758   -5.1343    1.9603 Cl  0  0  0  0  0  0  0  0  0  0  0  0
    7.9697   -3.1594    1.2614 C   0  0  0  0  0  0  0  0  0  0  0  0
    9.9164    0.9323    1.9333 C   0  0  0  0  0  0  0  0  0  0  0  0
   11.1212    0.6550    1.8726 O   0  0  0  0  0  0  0  0  0  0  0  0
    9.4847    2.2338    2.6099 C   0  0  0  0  0  0  0  0  0  0  0  0
    9.1949    2.1541    4.0956 C   0  0  0  0  0  0  0  0  0  0  0  0
    7.8878    2.4087    4.5197 C   0  0  0  0  0  0  0  0  0  0  0  0
    7.4672    2.3781    5.8004 N   0  0  0  0  0  0  0  0  0  0  0  0
    8.4010    2.0995    6.7305 C   0  0  0  0  0  0  0  0  0  0  0  0
    9.7449    1.8637    6.4542 C   0  0  0  0  0  0  0  0  0  0  0  0
   10.6582    1.6067    7.4937 C   0  0  0  0  0  0  0  0  0  0  0  0
   12.0059    1.3996    7.2181 C   0  0  0  0  0  0  0  0  0  0  0  0
   12.4501    1.4505    5.9034 C   0  0  0  0  0  0  0  0  0  0  0  0
   11.5462    1.6976    4.8629 C   0  0  0  0  0  0  0  0  0  0  0  0
   10.1671    1.8988    5.1025 C   0  0  0  0  0  0  0  0  0  0  0  0
    2.2058    5.2157   -1.9349 H   0  0  0  0  0  0  0  0  0  0  0  0
    1.4883    3.9280   -0.8019 H   0  0  0  0  0  0  0  0  0  0  0  0
    4.4479    4.6957   -1.1286 H   0  0  0  0  0  0  0  0  0  0  0  0
    6.4853    3.6328   -0.6503 H   0  0  0  0  0  0  0  0  0  0  0  0
    5.6161    2.6390   -1.8431 H   0  0  0  0  0  0  0  0  0  0  0  0
    8.1176    1.9200   -0.7934 H   0  0  0  0  0  0  0  0  0  0  0  0
    6.9093    0.7312   -1.3644 H   0  0  0  0  0  0  0  0  0  0  0  0
    3.9143    1.2630    2.5505 H   0  0  0  0  0  0  0  0  0  0  0  0
    5.2088   -0.2978    3.9638 H   0  0  0  0  0  0  0  0  0  0  0  0
    7.5455   -0.8632    3.4118 H   0  0  0  0  0  0  0  0  0  0  0  0
   10.0915   -1.6367    1.6813 H   0  0  0  0  0  0  0  0  0  0  0  0
   10.2132   -0.9763    0.0707 H   0  0  0  0  0  0  0  0  0  0  0  0
    8.5259   -1.5344   -1.6830 H   0  0  0  0  0  0  0  0  0  0  0  0
    6.7739   -3.1147   -2.4260 H   0  0  0  0  0  0  0  0  0  0  0  0
    5.7394   -4.6806   -0.8072 H   0  0  0  0  0  0  0  0  0  0  0  0
    8.3100   -3.1893    2.2940 H   0  0  0  0  0  0  0  0  0  0  0  0
    8.6367    2.6657    2.0681 H   0  0  0  0  0  0  0  0  0  0  0  0
   10.2902    2.9641    2.4559 H   0  0  0  0  0  0  0  0  0  0  0  0
    7.1031    2.6609    3.8101 H   0  0  0  0  0  0  0  0  0  0  0  0
    8.0234    2.0852    7.7501 H   0  0  0  0  0  0  0  0  0  0  0  0
   10.3222    1.5761    8.5287 H   0  0  0  0  0  0  0  0  0  0  0  0
   12.7065    1.2084    8.0266 H   0  0  0  0  0  0  0  0  0  0  0  0
   13.5037    1.3015    5.6791 H   0  0  0  0  0  0  0  0  0  0  0  0
   11.9508    1.7410    3.8553 H   0  0  0  0  0  0  0  0  0  0  0  0
  1  2  2  0  0  0  0
  1 36  1  0  0  0  0
  1 37  1  0  0  0  0
  2  3  1  0  0  0  0
  2 38  1  0  0  0  0
  3  4  2  0  0  0  0
  3  5  1  0  0  0  0
  5  6  1  0  0  0  0
  5  9  1  0  0  0  0
  6  7  1  0  0  0  0
  6 39  1  0  0  0  0
  6 40  1  0  0  0  0
  7  8  1  0  0  0  0
  7 41  1  0  0  0  0
  7 42  1  0  0  0  0
  8  9  1  0  0  0  0
  8 13  2  0  0  0  0
  9 10  2  0  0  0  0
 10 11  1  0  0  0  0
 10 43  1  0  0  0  0
 11 12  2  0  0  0  0
 11 44  1  0  0  0  0
 12 13  1  0  0  0  0
 12 45  1  0  0  0  0
 13 14  1  0  0  0  0
 14 15  1  0  0  0  0
 14 23  1  0  0  0  0
 15 16  1  0  0  0  0
 15 46  1  0  0  0  0
 15 47  1  0  0  0  0
 16 17  1  0  0  0  0
 16 22  2  0  0  0  0
 17 18  2  0  0  0  0
 17 48  1  0  0  0  0
 18 19  1  0  0  0  0
 18 49  1  0  0  0  0
 19 20  2  0  0  0  0
 19 50  1  0  0  0  0
 20 21  1  0  0  0  0
 20 22  1  0  0  0  0
 22 51  1  0  0  0  0
 23 24  2  0  0  0  0
 23 25  1  0  0  0  0
 25 26  1  0  0  0  0
 25 52  1  0  0  0  0
 25 53  1  0  0  0  0
 26 27  1  0  0  0  0
 26 35  2  0  0  0  0
 27 28  2  0  0  0  0
 27 54  1  0  0  0  0
 28 29  1  0  0  0  0
 29 30  2  0  0  0  0
 29 55  1  0  0  0  0
 30 31  1  0  0  0  0
 30 35  1  0  0  0  0
 31 32  2  0  0  0  0
 31 56  1  0  0  0  0
 32 33  1  0  0  0  0
 32 57  1  0  0  0  0
 33 34  2  0  0  0  0
 33 58  1  0  0  0  0
 34 35  1  0  0  0  0
 34 59  1  0  0  0  0
M  END
$$$$
