
 OpenBabel07202414193D

 39 42  0  0  1  0  0  0  0  0999 V2000
    1.9711    1.0495   -0.7365 O   0  0  0  0  0  0  0  0  0  0  0  0
    0.8722    0.6513   -0.3943 C   0  0  0  0  0  0  0  0  0  0  0  0
    0.5871   -0.6792   -0.2007 N   0  0  0  0  0  0  0  0  0  0  0  0
   -0.8148   -0.9179    0.0254 C   0  0  2  0  0  0  0  0  0  0  0  0
   -1.3794   -1.8556   -1.0434 C   0  0  0  0  0  0  0  0  0  0  0  0
   -0.7715   -3.2481   -0.9450 C   0  0  0  0  0  0  0  0  0  0  0  0
   -1.0063   -4.0547    0.1798 C   0  0  0  0  0  0  0  0  0  0  0  0
   -0.4074   -5.3117    0.2942 C   0  0  0  0  0  0  0  0  0  0  0  0
    0.4283   -5.7869   -0.7132 C   0  0  0  0  0  0  0  0  0  0  0  0
    0.6652   -5.0030   -1.8391 C   0  0  0  0  0  0  0  0  0  0  0  0
    0.0736   -3.7421   -1.9541 C   0  0  0  0  0  0  0  0  0  0  0  0
   -1.3390    0.5326    0.0100 C   0  0  0  0  0  0  0  0  0  0  0  0
   -2.5170    0.8415    0.1277 O   0  0  0  0  0  0  0  0  0  0  0  0
   -0.2634    1.3750   -0.1439 N   0  0  0  0  0  0  0  0  0  0  0  0
   -0.2402    2.7752    0.0614 C   0  0  0  0  0  0  0  0  0  0  0  0
    0.2207    3.6071   -0.9591 C   0  0  0  0  0  0  0  0  0  0  0  0
    0.3602    4.9495   -0.8539 N   0  0  0  0  0  0  0  0  0  0  0  0
    0.1772    5.4741    0.3778 C   0  0  0  0  0  0  0  0  0  0  0  0
   -0.1174    4.7254    1.5152 C   0  0  0  0  0  0  0  0  0  0  0  0
   -0.0552    5.3012    2.7943 C   0  0  0  0  0  0  0  0  0  0  0  0
   -0.2882    4.5297    3.9295 C   0  0  0  0  0  0  0  0  0  0  0  0
   -0.6916    3.2064    3.7907 C   0  0  0  0  0  0  0  0  0  0  0  0
   -0.7693    2.6282    2.5207 C   0  0  0  0  0  0  0  0  0  0  0  0
   -0.4121    3.3455    1.3502 C   0  0  0  0  0  0  0  0  0  0  0  0
    1.2835   -1.4000   -0.3438 H   0  0  0  0  0  0  0  0  0  0  0  0
   -0.9471   -1.3075    1.0404 H   0  0  0  0  0  0  0  0  0  0  0  0
   -2.4694   -1.9398   -0.9608 H   0  0  0  0  0  0  0  0  0  0  0  0
   -1.1803   -1.4426   -2.0418 H   0  0  0  0  0  0  0  0  0  0  0  0
   -1.6556   -3.7082    0.9813 H   0  0  0  0  0  0  0  0  0  0  0  0
   -0.5899   -5.9229    1.1752 H   0  0  0  0  0  0  0  0  0  0  0  0
    0.8909   -6.7672   -0.6211 H   0  0  0  0  0  0  0  0  0  0  0  0
    1.3151   -5.3768   -2.6289 H   0  0  0  0  0  0  0  0  0  0  0  0
    0.2821   -3.1472   -2.8404 H   0  0  0  0  0  0  0  0  0  0  0  0
    0.5152    3.2083   -1.9263 H   0  0  0  0  0  0  0  0  0  0  0  0
    0.3086    6.5514    0.4315 H   0  0  0  0  0  0  0  0  0  0  0  0
    0.2596    6.3372    2.9196 H   0  0  0  0  0  0  0  0  0  0  0  0
   -0.1466    4.9561    4.9200 H   0  0  0  0  0  0  0  0  0  0  0  0
   -0.9121    2.6100    4.6729 H   0  0  0  0  0  0  0  0  0  0  0  0
   -1.0801    1.5894    2.4619 H   0  0  0  0  0  0  0  0  0  0  0  0
  1  2  2  0  0  0  0
  2  3  1  0  0  0  0
  2 14  1  0  0  0  0
  3  4  1  0  0  0  0
  3 25  1  0  0  0  0
  4 12  1  0  0  0  0
  4  5  1  0  0  0  0
  4 26  1  1  0  0  0
  5  6  1  0  0  0  0
  5 27  1  0  0  0  0
  5 28  1  0  0  0  0
  6  7  1  0  0  0  0
  6 11  2  0  0  0  0
  7  8  2  0  0  0  0
  7 29  1  0  0  0  0
  8  9  1  0  0  0  0
  8 30  1  0  0  0  0
  9 10  2  0  0  0  0
  9 31  1  0  0  0  0
 10 11  1  0  0  0  0
 10 32  1  0  0  0  0
 11 33  1  0  0  0  0
 12 13  2  0  0  0  0
 12 14  1  0  0  0  0
 14 15  1  0  0  0  0
 15 16  1  0  0  0  0
 15 24  2  0  0  0  0
 16 17  2  0  0  0  0
 16 34  1  0  0  0  0
 17 18  1  0  0  0  0
 18 19  2  0  0  0  0
 18 35  1  0  0  0  0
 19 20  1  0  0  0  0
 19 24  1  0  0  0  0
 20 21  2  0  0  0  0
 20 36  1  0  0  0  0
 21 22  1  0  0  0  0
 21 37  1  0  0  0  0
 22 23  2  0  0  0  0
 22 38  1  0  0  0  0
 23 24  1  0  0  0  0
 23 39  1  0  0  0  0
M  END
$$$$
