
 OpenBabel07202414133D

 76 81  0  0  1  0  0  0  0  0999 V2000
    1.2179   -3.2367   -0.1612 C   0  0  0  0  0  0  0  0  0  0  0  0
    1.5914   -2.5467   -1.3981 N   0  0  0  0  0  0  0  0  0  0  0  0
    0.3864   -2.0620   -2.0756 C   0  0  0  0  0  0  0  0  0  0  0  0
    2.5244   -1.4353   -1.1391 C   0  0  0  0  0  0  0  0  0  0  0  0
    3.8574   -1.8908   -0.5363 C   0  0  0  0  0  0  0  0  0  0  0  0
    4.5574   -2.8953   -1.4358 C   0  0  0  0  0  0  0  0  0  0  0  0
    5.7660   -3.3091   -0.7998 O   0  0  0  0  0  0  0  0  0  0  0  0
    6.5186   -4.1943   -1.5222 C   0  0  0  0  0  0  0  0  0  0  0  0
    6.1781   -4.7228   -2.7615 C   0  0  0  0  0  0  0  0  0  0  0  0
    7.0655   -5.5529   -3.4366 C   0  0  0  0  0  0  0  0  0  0  0  0
    8.3064   -5.8623   -2.8695 C   0  0  0  0  0  0  0  0  0  0  0  0
    9.2303   -6.6094   -3.5993 C   0  0  0  0  0  0  0  0  0  0  0  0
   10.4780   -6.8808   -3.1832 N   0  0  0  0  0  0  0  0  0  0  0  0
   10.8053   -6.4091   -1.9607 C   0  0  0  0  0  0  0  0  0  0  0  0
    9.9402   -5.7172   -1.0936 C   0  0  0  0  0  0  0  0  0  0  0  0
   10.4519   -5.4528    0.1957 N   0  0  0  0  0  0  0  0  0  0  0  0
    9.7882   -5.4355    1.4564 C   0  0  0  0  0  0  0  0  0  0  0  0
   10.9480   -5.4314    2.4747 C   0  0  0  0  0  0  0  0  0  0  0  0
   12.2392   -5.0822    1.6572 C   0  0  3  0  0  0  0  0  0  0  0  0
   13.0134   -3.9079    2.2824 C   0  0  0  0  0  0  0  0  0  0  0  0
   14.4221   -3.7643    1.8032 N   0  0  0  0  0  0  0  0  0  0  0  0
   14.7634   -3.2361    0.2166 S   0  0  0  0  0  0  0  0  0  0  0  0
   16.2027   -3.0718    0.1862 O   0  0  0  0  0  0  0  0  0  0  0  0
   14.1522   -4.1633   -0.7079 O   0  0  0  0  0  0  0  0  0  0  0  0
   14.0242   -1.5754    0.1120 C   0  0  0  0  0  0  0  0  0  0  0  0
   14.1634   -1.1604   -1.3384 C   0  0  0  0  0  0  0  0  0  0  0  0
   15.5057   -1.1424   -1.8598 C   0  0  0  0  0  0  0  0  0  0  0  0
   16.5810   -1.0800   -2.3018 N   0  0  0  0  0  0  0  0  0  0  0  0
   13.0262   -1.4442   -2.3027 C   0  0  0  0  0  0  0  0  0  0  0  0
   13.2861   -0.0317   -1.8804 C   0  0  0  0  0  0  0  0  0  0  0  0
   15.2084   -4.9788    2.1527 C   0  0  0  0  0  0  0  0  0  0  0  0
   14.5358   -6.2630    1.7210 C   0  0  0  0  0  0  0  0  0  0  0  0
   15.3386   -7.4124    1.5684 C   0  0  0  0  0  0  0  0  0  0  0  0
   14.7808   -8.6275    1.1783 C   0  0  0  0  0  0  0  0  0  0  0  0
   13.4155   -8.7041    0.9494 C   0  0  0  0  0  0  0  0  0  0  0  0
   12.7067  -10.1955    0.4663 Cl  0  0  0  0  0  0  0  0  0  0  0  0
   12.6057   -7.5783    1.1107 C   0  0  0  0  0  0  0  0  0  0  0  0
   13.1406   -6.3316    1.4942 C   0  0  0  0  0  0  0  0  0  0  0  0
   11.5668   -4.6395    0.3620 C   0  0  0  0  0  0  0  0  0  0  0  0
   11.7311   -3.6032   -0.2628 O   0  0  0  0  0  0  0  0  0  0  0  0
    8.6612   -5.3920   -1.5822 C   0  0  0  0  0  0  0  0  0  0  0  0
    7.7395   -4.5382   -0.9306 C   0  0  0  0  0  0  0  0  0  0  0  0
    0.5294   -4.0616   -0.3720 H   0  0  0  0  0  0  0  0  0  0  0  0
    0.7464   -2.5574    0.5569 H   0  0  0  0  0  0  0  0  0  0  0  0
    2.0876   -3.6987    0.3160 H   0  0  0  0  0  0  0  0  0  0  0  0
   -0.3164   -2.8858   -2.2469 H   0  0  0  0  0  0  0  0  0  0  0  0
    0.6327   -1.6541   -3.0621 H   0  0  0  0  0  0  0  0  0  0  0  0
   -0.1287   -1.2878   -1.4960 H   0  0  0  0  0  0  0  0  0  0  0  0
    2.0681   -0.6919   -0.4741 H   0  0  0  0  0  0  0  0  0  0  0  0
    2.7442   -0.9230   -2.0859 H   0  0  0  0  0  0  0  0  0  0  0  0
    3.7220   -2.3211    0.4628 H   0  0  0  0  0  0  0  0  0  0  0  0
    4.5111   -1.0240   -0.3813 H   0  0  0  0  0  0  0  0  0  0  0  0
    4.7813   -2.4163   -2.3975 H   0  0  0  0  0  0  0  0  0  0  0  0
    3.9180   -3.7725   -1.5902 H   0  0  0  0  0  0  0  0  0  0  0  0
    5.2439   -4.4826   -3.2551 H   0  0  0  0  0  0  0  0  0  0  0  0
    6.7930   -5.9191   -4.4203 H   0  0  0  0  0  0  0  0  0  0  0  0
    8.9940   -6.9943   -4.5881 H   0  0  0  0  0  0  0  0  0  0  0  0
   11.8270   -6.6463   -1.6647 H   0  0  0  0  0  0  0  0  0  0  0  0
    9.1024   -6.2752    1.5840 H   0  0  0  0  0  0  0  0  0  0  0  0
    9.2524   -4.4863    1.5711 H   0  0  0  0  0  0  0  0  0  0  0  0
   11.0196   -6.4078    2.9677 H   0  0  0  0  0  0  0  0  0  0  0  0
   10.7473   -4.7008    3.2669 H   0  0  0  0  0  0  0  0  0  0  0  0
   13.0849   -4.0779    3.3691 H   0  0  0  0  0  0  0  0  0  0  0  0
   12.4883   -2.9528    2.1864 H   0  0  0  0  0  0  0  0  0  0  0  0
   14.6030   -0.9192    0.7728 H   0  0  0  0  0  0  0  0  0  0  0  0
   12.9841   -1.5878    0.4424 H   0  0  0  0  0  0  0  0  0  0  0  0
   12.1129   -1.9039   -1.9435 H   0  0  0  0  0  0  0  0  0  0  0  0
   13.2869   -1.7581   -3.3094 H   0  0  0  0  0  0  0  0  0  0  0  0
   12.5627    0.4454   -1.2318 H   0  0  0  0  0  0  0  0  0  0  0  0
   13.7032    0.6374   -2.6308 H   0  0  0  0  0  0  0  0  0  0  0  0
   15.3573   -5.0008    3.2389 H   0  0  0  0  0  0  0  0  0  0  0  0
   16.2161   -4.9221    1.7223 H   0  0  0  0  0  0  0  0  0  0  0  0
   16.4138   -7.3614    1.7367 H   0  0  0  0  0  0  0  0  0  0  0  0
   15.4130   -9.5020    1.0490 H   0  0  0  0  0  0  0  0  0  0  0  0
   11.5419   -7.6967    0.9238 H   0  0  0  0  0  0  0  0  0  0  0  0
    7.9838   -4.0685    0.0059 H   0  0  0  0  0  0  0  0  0  0  0  0
  1  2  1  0  0  0  0
  1 43  1  0  0  0  0
  1 44  1  0  0  0  0
  1 45  1  0  0  0  0
  2  3  1  0  0  0  0
  2  4  1  0  0  0  0
  3 46  1  0  0  0  0
  3 47  1  0  0  0  0
  3 48  1  0  0  0  0
  4  5  1  0  0  0  0
  4 49  1  0  0  0  0
  4 50  1  0  0  0  0
  5  6  1  0  0  0  0
  5 51  1  0  0  0  0
  5 52  1  0  0  0  0
  6  7  1  0  0  0  0
  6 53  1  0  0  0  0
  6 54  1  0  0  0  0
  7  8  1  0  0  0  0
  8  9  1  0  0  0  0
  8 42  2  0  0  0  0
  9 10  2  0  0  0  0
  9 55  1  0  0  0  0
 10 11  1  0  0  0  0
 10 56  1  0  0  0  0
 11 12  1  0  0  0  0
 11 41  2  0  0  0  0
 12 13  2  0  0  0  0
 12 57  1  0  0  0  0
 13 14  1  0  0  0  0
 14 15  2  0  0  0  0
 14 58  1  0  0  0  0
 15 16  1  0  0  0  0
 15 41  1  0  0  0  0
 16 17  1  0  0  0  0
 16 39  1  0  0  0  0
 17 18  1  0  0  0  0
 17 59  1  0  0  0  0
 17 60  1  0  0  0  0
 18 19  1  0  0  0  0
 18 61  1  0  0  0  0
 18 62  1  0  0  0  0
 19 20  1  0  0  0  0
 19 38  1  0  0  0  0
 19 39  1  0  0  0  0
 20 21  1  0  0  0  0
 20 63  1  0  0  0  0
 20 64  1  0  0  0  0
 21 22  1  0  0  0  0
 21 31  1  0  0  0  0
 22 23  2  0  0  0  0
 22 24  2  0  0  0  0
 22 25  1  0  0  0  0
 25 26  1  0  0  0  0
 25 65  1  0  0  0  0
 25 66  1  0  0  0  0
 26 27  1  0  0  0  0
 26 29  1  0  0  0  0
 26 30  1  0  0  0  0
 27 28  3  0  0  0  0
 29 30  1  0  0  0  0
 29 67  1  0  0  0  0
 29 68  1  0  0  0  0
 30 69  1  0  0  0  0
 30 70  1  0  0  0  0
 31 32  1  0  0  0  0
 31 71  1  0  0  0  0
 31 72  1  0  0  0  0
 32 33  1  0  0  0  0
 32 38  2  0  0  0  0
 33 34  2  0  0  0  0
 33 73  1  0  0  0  0
 34 35  1  0  0  0  0
 34 74  1  0  0  0  0
 35 36  1  0  0  0  0
 35 37  2  0  0  0  0
 37 38  1  0  0  0  0
 37 75  1  0  0  0  0
 39 40  2  0  0  0  0
 41 42  1  0  0  0  0
 42 76  1  0  0  0  0
M  END
$$$$
