
 OpenBabel07202414153D

 52 55  0  0  1  0  0  0  0  0999 V2000
    3.2093    1.2326    0.0125 C   0  0  0  0  0  0  0  0  0  0  0  0
    2.5494   -0.1354    0.2155 C   0  0  2  0  0  0  0  0  0  0  0  0
    1.1327   -0.0357   -0.1604 N   0  0  0  0  0  0  0  0  0  0  0  0
    0.4217   -1.1402   -0.6357 C   0  0  0  0  0  0  0  0  0  0  0  0
    1.0135   -2.1778   -1.3622 C   0  0  0  0  0  0  0  0  0  0  0  0
    0.2555   -3.2543   -1.8220 C   0  0  0  0  0  0  0  0  0  0  0  0
    1.0265   -4.5379   -2.6718 Cl  0  0  0  0  0  0  0  0  0  0  0  0
   -1.1187   -3.2969   -1.6132 C   0  0  0  0  0  0  0  0  0  0  0  0
   -1.7599   -2.2321   -0.9726 C   0  0  0  0  0  0  0  0  0  0  0  0
   -3.2693   -2.2218   -0.8727 C   0  0  0  0  0  0  0  0  0  0  0  0
   -3.8601   -2.0831    0.5176 C   0  0  0  0  0  0  0  0  0  0  0  0
   -4.8267   -1.3504    0.7171 O   0  0  0  0  0  0  0  0  0  0  0  0
   -3.2626   -2.8702    1.4846 N   0  0  0  0  0  0  0  0  0  0  0  0
   -3.7116   -2.9025    2.8274 C   0  0  0  0  0  0  0  0  0  0  0  0
   -5.0724   -2.9736    3.1330 C   0  0  0  0  0  0  0  0  0  0  0  0
   -5.5729   -3.0515    4.3872 N   0  0  0  0  0  0  0  0  0  0  0  0
   -4.6730   -3.0189    5.3912 C   0  0  0  0  0  0  0  0  0  0  0  0
   -3.2918   -2.9225    5.2115 C   0  0  0  0  0  0  0  0  0  0  0  0
   -2.4134   -2.8421    6.3116 C   0  0  0  0  0  0  0  0  0  0  0  0
   -1.0410   -2.7094    6.1190 C   0  0  0  0  0  0  0  0  0  0  0  0
   -0.5311   -2.6674    4.8288 C   0  0  0  0  0  0  0  0  0  0  0  0
   -1.3868   -2.7502    3.7310 C   0  0  0  0  0  0  0  0  0  0  0  0
   -2.7863   -2.8812    3.8950 C   0  0  0  0  0  0  0  0  0  0  0  0
   -0.9808   -1.1570   -0.5036 C   0  0  0  0  0  0  0  0  0  0  0  0
    2.7074   -0.6111    1.6550 C   0  0  0  0  0  0  0  0  0  0  0  0
    3.4317   -1.7841    1.9310 C   0  0  0  0  0  0  0  0  0  0  0  0
    3.6499   -2.2032    3.2487 C   0  0  0  0  0  0  0  0  0  0  0  0
    3.1423   -1.4475    4.3020 C   0  0  0  0  0  0  0  0  0  0  0  0
    3.4430   -2.0047    6.0867 Br  0  0  0  0  0  0  0  0  0  0  0  0
    2.4001   -0.2969    4.0546 C   0  0  0  0  0  0  0  0  0  0  0  0
    2.1832    0.1171    2.7374 C   0  0  0  0  0  0  0  0  0  0  0  0
    4.2809    1.1816    0.2361 H   0  0  0  0  0  0  0  0  0  0  0  0
    2.7694    2.0064    0.6504 H   0  0  0  0  0  0  0  0  0  0  0  0
    3.0968    1.5615   -1.0265 H   0  0  0  0  0  0  0  0  0  0  0  0
    3.0895   -0.8174   -0.4484 H   0  0  0  0  0  0  0  0  0  0  0  0
    0.5976    0.5179    0.5021 H   0  0  0  0  0  0  0  0  0  0  0  0
    2.0698   -2.1605   -1.6064 H   0  0  0  0  0  0  0  0  0  0  0  0
   -1.6907   -4.1438   -1.9860 H   0  0  0  0  0  0  0  0  0  0  0  0
   -3.6869   -3.1445   -1.2939 H   0  0  0  0  0  0  0  0  0  0  0  0
   -3.6429   -1.3945   -1.4884 H   0  0  0  0  0  0  0  0  0  0  0  0
   -2.3102   -3.1604    1.3071 H   0  0  0  0  0  0  0  0  0  0  0  0
   -5.8266   -3.0118    2.3512 H   0  0  0  0  0  0  0  0  0  0  0  0
   -5.1110   -3.0590    6.3857 H   0  0  0  0  0  0  0  0  0  0  0  0
   -2.8010   -2.8631    7.3305 H   0  0  0  0  0  0  0  0  0  0  0  0
   -0.3721   -2.6249    6.9712 H   0  0  0  0  0  0  0  0  0  0  0  0
    0.5352   -2.5588    4.6674 H   0  0  0  0  0  0  0  0  0  0  0  0
   -0.9349   -2.6734    2.7459 H   0  0  0  0  0  0  0  0  0  0  0  0
   -1.4781   -0.3088   -0.0328 H   0  0  0  0  0  0  0  0  0  0  0  0
    3.8474   -2.3790    1.1199 H   0  0  0  0  0  0  0  0  0  0  0  0
    4.2241   -3.1078    3.4329 H   0  0  0  0  0  0  0  0  0  0  0  0
    1.9877    0.2859    4.8741 H   0  0  0  0  0  0  0  0  0  0  0  0
    1.6122    1.0269    2.5667 H   0  0  0  0  0  0  0  0  0  0  0  0
  1 32  1  0  0  0  0
  1 33  1  0  0  0  0
  1 34  1  0  0  0  0
  2 25  1  0  0  0  0
  2  3  1  0  0  0  0
  2  1  1  0  0  0  0
  2 35  1  6  0  0  0
  3  4  1  0  0  0  0
  3 36  1  0  0  0  0
  4  5  1  0  0  0  0
  4 24  2  0  0  0  0
  5  6  2  0  0  0  0
  5 37  1  0  0  0  0
  6  7  1  0  0  0  0
  6  8  1  0  0  0  0
  8  9  2  0  0  0  0
  8 38  1  0  0  0  0
  9 10  1  0  0  0  0
  9 24  1  0  0  0  0
 10 11  1  0  0  0  0
 10 39  1  0  0  0  0
 10 40  1  0  0  0  0
 11 12  2  0  0  0  0
 11 13  1  0  0  0  0
 13 14  1  0  0  0  0
 13 41  1  0  0  0  0
 14 15  1  0  0  0  0
 14 23  2  0  0  0  0
 15 16  2  0  0  0  0
 15 42  1  0  0  0  0
 16 17  1  0  0  0  0
 17 18  2  0  0  0  0
 17 43  1  0  0  0  0
 18 19  1  0  0  0  0
 18 23  1  0  0  0  0
 19 20  2  0  0  0  0
 19 44  1  0  0  0  0
 20 21  1  0  0  0  0
 20 45  1  0  0  0  0
 21 22  2  0  0  0  0
 21 46  1  0  0  0  0
 22 23  1  0  0  0  0
 22 47  1  0  0  0  0
 24 48  1  0  0  0  0
 25 26  1  0  0  0  0
 25 31  2  0  0  0  0
 26 27  2  0  0  0  0
 26 49  1  0  0  0  0
 27 28  1  0  0  0  0
 27 50  1  0  0  0  0
 28 29  1  0  0  0  0
 28 30  2  0  0  0  0
 30 31  1  0  0  0  0
 30 51  1  0  0  0  0
 31 52  1  0  0  0  0
M  END
$$$$
