
 OpenBabel07202414163D

 42 45  0  0  0  0  0  0  0  0999 V2000
    1.4404   -1.7786   -2.2148 C   0  0  0  0  0  0  0  0  0  0  0  0
    0.5569   -0.5907   -1.9416 C   0  0  0  0  0  0  0  0  0  0  0  0
   -0.7649   -0.5928   -2.3957 C   0  0  0  0  0  0  0  0  0  0  0  0
   -1.5709    0.5117   -2.1468 C   0  0  0  0  0  0  0  0  0  0  0  0
   -1.1262    1.6032   -1.4782 N   0  0  0  0  0  0  0  0  0  0  0  0
    0.1529    1.6116   -1.0257 C   0  0  0  0  0  0  0  0  0  0  0  0
    1.0258    0.5320   -1.2345 C   0  0  0  0  0  0  0  0  0  0  0  0
    2.3694    0.5545   -0.7366 C   0  0  0  0  0  0  0  0  0  0  0  0
    3.4606    0.5285   -0.3430 N   0  0  0  0  0  0  0  0  0  0  0  0
    0.7003    3.0601   -0.1221 S   0  0  0  0  0  0  0  0  0  0  0  0
   -0.6854    4.1400   -0.1847 C   0  0  0  0  0  0  0  0  0  0  0  0
   -0.8280    5.0484   -1.2319 C   0  0  0  0  0  0  0  0  0  0  0  0
   -1.8708    5.9534   -1.1165 C   0  0  0  0  0  0  0  0  0  0  0  0
   -2.7577    6.0532   -0.1083 N   0  0  0  0  0  0  0  0  0  0  0  0
   -2.5117    5.1308    0.8450 C   0  0  0  0  0  0  0  0  0  0  0  0
   -1.5316    4.2064    0.8771 N   0  0  0  0  0  0  0  0  0  0  0  0
   -1.7530    6.7272   -2.2386 N   0  0  0  0  0  0  0  0  0  0  0  0
   -0.6956    6.3426   -2.9913 N   0  0  0  0  0  0  0  0  0  0  0  0
   -0.1275    5.3048   -2.3840 N   0  0  0  0  0  0  0  0  0  0  0  0
   -2.5245    7.9006   -2.5985 C   0  0  0  0  0  0  0  0  0  0  0  0
   -3.7092    7.5358   -3.4566 C   0  0  0  0  0  0  0  0  0  0  0  0
   -4.9552    7.2699   -2.8706 C   0  0  0  0  0  0  0  0  0  0  0  0
   -6.0286    6.8440   -3.6542 C   0  0  0  0  0  0  0  0  0  0  0  0
   -5.8706    6.6869   -5.0298 C   0  0  0  0  0  0  0  0  0  0  0  0
   -4.6458    6.9769   -5.6275 C   0  0  0  0  0  0  0  0  0  0  0  0
   -3.5695    7.4001   -4.8463 C   0  0  0  0  0  0  0  0  0  0  0  0
   -2.9989    0.5306   -2.6073 C   0  0  0  0  0  0  0  0  0  0  0  0
    0.9117   -2.5505   -2.7844 H   0  0  0  0  0  0  0  0  0  0  0  0
    1.7733   -2.2320   -1.2754 H   0  0  0  0  0  0  0  0  0  0  0  0
    2.3117   -1.4752   -2.8044 H   0  0  0  0  0  0  0  0  0  0  0  0
   -1.1620   -1.4477   -2.9373 H   0  0  0  0  0  0  0  0  0  0  0  0
   -3.1775    5.1402    1.7040 H   0  0  0  0  0  0  0  0  0  0  0  0
   -1.8599    8.5955   -3.1260 H   0  0  0  0  0  0  0  0  0  0  0  0
   -2.8405    8.4014   -1.6761 H   0  0  0  0  0  0  0  0  0  0  0  0
   -5.0934    7.3744   -1.7958 H   0  0  0  0  0  0  0  0  0  0  0  0
   -6.9850    6.6206   -3.1886 H   0  0  0  0  0  0  0  0  0  0  0  0
   -6.7005    6.3322   -5.6354 H   0  0  0  0  0  0  0  0  0  0  0  0
   -4.5239    6.8580   -6.7013 H   0  0  0  0  0  0  0  0  0  0  0  0
   -2.6143    7.6033   -5.3281 H   0  0  0  0  0  0  0  0  0  0  0  0
   -3.2597   -0.3813   -3.1552 H   0  0  0  0  0  0  0  0  0  0  0  0
   -3.1663    1.3842   -3.2706 H   0  0  0  0  0  0  0  0  0  0  0  0
   -3.6672    0.6100   -1.7444 H   0  0  0  0  0  0  0  0  0  0  0  0
  1  2  1  0  0  0  0
  1 28  1  0  0  0  0
  1 29  1  0  0  0  0
  1 30  1  0  0  0  0
  2  3  1  0  0  0  0
  2  7  2  0  0  0  0
  3  4  2  0  0  0  0
  3 31  1  0  0  0  0
  4  5  1  0  0  0  0
  4 27  1  0  0  0  0
  5  6  2  0  0  0  0
  6  7  1  0  0  0  0
  6 10  1  0  0  0  0
  7  8  1  0  0  0  0
  8  9  3  0  0  0  0
 10 11  1  0  0  0  0
 11 12  1  0  0  0  0
 11 16  2  0  0  0  0
 12 13  2  0  0  0  0
 12 19  1  0  0  0  0
 13 14  1  0  0  0  0
 13 17  1  0  0  0  0
 14 15  2  0  0  0  0
 15 16  1  0  0  0  0
 15 32  1  0  0  0  0
 17 18  1  0  0  0  0
 17 20  1  0  0  0  0
 18 19  2  0  0  0  0
 20 21  1  0  0  0  0
 20 33  1  0  0  0  0
 20 34  1  0  0  0  0
 21 22  1  0  0  0  0
 21 26  2  0  0  0  0
 22 23  2  0  0  0  0
 22 35  1  0  0  0  0
 23 24  1  0  0  0  0
 23 36  1  0  0  0  0
 24 25  2  0  0  0  0
 24 37  1  0  0  0  0
 25 26  1  0  0  0  0
 25 38  1  0  0  0  0
 26 39  1  0  0  0  0
 27 40  1  0  0  0  0
 27 41  1  0  0  0  0
 27 42  1  0  0  0  0
M  END
$$$$
