
 OpenBabel07202414143D

 59 62  0  0  1  0  0  0  0  0999 V2000
    6.4249   -0.4591   -9.0277 C   0  0  0  0  0  0  0  0  0  0  0  0
    5.5962   -0.5229   -7.8518 N   0  0  0  0  0  0  0  0  0  0  0  0
    4.3305    0.0122   -7.8572 C   0  0  0  0  0  0  0  0  0  0  0  0
    3.8468    0.5938   -8.8276 O   0  0  0  0  0  0  0  0  0  0  0  0
    3.5366   -0.1956   -6.5732 C   0  0  0  0  0  0  0  0  0  0  0  0
    4.0080    0.5582   -5.4115 N   0  0  0  0  0  0  0  0  0  0  0  0
    3.8799    2.0134   -5.4122 C   0  0  0  0  0  0  0  0  0  0  0  0
    3.4920    2.5455   -4.0306 C   0  0  3  0  0  0  0  0  0  0  0  0
    1.9756    2.5130   -3.8099 C   0  0  0  0  0  0  0  0  0  0  0  0
    1.3896    3.5468   -3.4964 O   0  0  0  0  0  0  0  0  0  0  0  0
    1.3825    1.2702   -3.9686 N   0  0  0  0  0  0  0  0  0  0  0  0
    0.0187    0.9292   -3.7402 C   0  0  0  0  0  0  0  0  0  0  0  0
   -0.9352    1.8626   -3.3251 C   0  0  0  0  0  0  0  0  0  0  0  0
   -2.2032    1.5621   -2.9541 N   0  0  0  0  0  0  0  0  0  0  0  0
   -2.5657    0.2697   -3.0469 C   0  0  0  0  0  0  0  0  0  0  0  0
   -1.7496   -0.7420   -3.5442 C   0  0  0  0  0  0  0  0  0  0  0  0
   -2.2462   -2.0438   -3.6991 C   0  0  0  0  0  0  0  0  0  0  0  0
   -1.4285   -3.0654   -4.1745 C   0  0  0  0  0  0  0  0  0  0  0  0
   -0.0838   -2.8212   -4.4795 C   0  0  0  0  0  0  0  0  0  0  0  0
    0.8455   -3.9729   -4.8496 C   0  0  0  0  0  0  0  0  0  0  0  0
    0.9009   -4.9926   -3.7028 C   0  0  0  0  0  0  0  0  0  0  0  0
    0.4209   -4.6584   -6.1535 C   0  0  0  0  0  0  0  0  0  0  0  0
    2.1746   -3.4838   -5.0752 O   0  0  0  0  0  0  0  0  0  0  0  0
    0.3890   -1.4961   -4.3615 C   0  0  0  0  0  0  0  0  0  0  0  0
   -0.4154   -0.4232   -3.8931 C   0  0  0  0  0  0  0  0  0  0  0  0
    4.2738    1.8580   -2.9314 C   0  0  0  0  0  0  0  0  0  0  0  0
    4.3153    2.4155   -1.6411 C   0  0  0  0  0  0  0  0  0  0  0  0
    5.0540    1.8004   -0.6281 C   0  0  0  0  0  0  0  0  0  0  0  0
    5.0743    2.4828    0.9505 Cl  0  0  0  0  0  0  0  0  0  0  0  0
    5.7710    0.6366   -0.8836 C   0  0  0  0  0  0  0  0  0  0  0  0
    5.7351    0.0622   -2.1620 C   0  0  0  0  0  0  0  0  0  0  0  0
    4.9811    0.6620   -3.1777 C   0  0  0  0  0  0  0  0  0  0  0  0
    4.8437   -0.0474   -4.4879 C   0  0  0  0  0  0  0  0  0  0  0  0
    5.3667   -1.1401   -4.6706 O   0  0  0  0  0  0  0  0  0  0  0  0
    7.3129   -1.0757   -8.8765 H   0  0  0  0  0  0  0  0  0  0  0  0
    6.7131    0.5814   -9.2008 H   0  0  0  0  0  0  0  0  0  0  0  0
    5.8629   -0.8217   -9.8942 H   0  0  0  0  0  0  0  0  0  0  0  0
    5.9400   -0.9673   -7.0021 H   0  0  0  0  0  0  0  0  0  0  0  0
    3.5339   -1.2666   -6.3379 H   0  0  0  0  0  0  0  0  0  0  0  0
    2.4961    0.0957   -6.7521 H   0  0  0  0  0  0  0  0  0  0  0  0
    3.1602    2.3247   -6.1761 H   0  0  0  0  0  0  0  0  0  0  0  0
    4.8645    2.4136   -5.6938 H   0  0  0  0  0  0  0  0  0  0  0  0
    3.7685    3.6094   -4.0207 H   0  0  0  0  0  0  0  0  0  0  0  0
    2.0069    0.5103   -4.1985 H   0  0  0  0  0  0  0  0  0  0  0  0
   -0.7252    2.9239   -3.2571 H   0  0  0  0  0  0  0  0  0  0  0  0
   -3.5732    0.0625   -2.6950 H   0  0  0  0  0  0  0  0  0  0  0  0
   -3.2804   -2.2750   -3.4499 H   0  0  0  0  0  0  0  0  0  0  0  0
   -1.8521   -4.0614   -4.2842 H   0  0  0  0  0  0  0  0  0  0  0  0
   -0.0698   -5.4666   -3.5176 H   0  0  0  0  0  0  0  0  0  0  0  0
    1.2202   -4.5107   -2.7696 H   0  0  0  0  0  0  0  0  0  0  0  0
    1.6316   -5.7803   -3.9133 H   0  0  0  0  0  0  0  0  0  0  0  0
   -0.5855   -5.0845   -6.0972 H   0  0  0  0  0  0  0  0  0  0  0  0
    1.1165   -5.4688   -6.4051 H   0  0  0  0  0  0  0  0  0  0  0  0
    0.4493   -3.9560   -6.9950 H   0  0  0  0  0  0  0  0  0  0  0  0
    2.6159   -3.4171   -4.2108 H   0  0  0  0  0  0  0  0  0  0  0  0
    1.4160   -1.3096   -4.6535 H   0  0  0  0  0  0  0  0  0  0  0  0
    3.7633    3.3301   -1.4213 H   0  0  0  0  0  0  0  0  0  0  0  0
    6.3471    0.1608   -0.0930 H   0  0  0  0  0  0  0  0  0  0  0  0
    6.2766   -0.8607   -2.3469 H   0  0  0  0  0  0  0  0  0  0  0  0
  1  2  1  0  0  0  0
  1 35  1  0  0  0  0
  1 36  1  0  0  0  0
  1 37  1  0  0  0  0
  2  3  1  0  0  0  0
  2 38  1  0  0  0  0
  3  4  2  0  0  0  0
  3  5  1  0  0  0  0
  5  6  1  0  0  0  0
  5 39  1  0  0  0  0
  5 40  1  0  0  0  0
  6  7  1  0  0  0  0
  6 33  1  0  0  0  0
  7  8  1  0  0  0  0
  7 41  1  0  0  0  0
  7 42  1  0  0  0  0
  8  9  1  0  0  0  0
  8 26  1  0  0  0  0
  8 43  1  0  0  0  0
  9 10  2  0  0  0  0
  9 11  1  0  0  0  0
 11 12  1  0  0  0  0
 11 44  1  0  0  0  0
 12 13  1  0  0  0  0
 12 25  2  0  0  0  0
 13 14  2  0  0  0  0
 13 45  1  0  0  0  0
 14 15  1  0  0  0  0
 15 16  2  0  0  0  0
 15 46  1  0  0  0  0
 16 17  1  0  0  0  0
 16 25  1  0  0  0  0
 17 18  2  0  0  0  0
 17 47  1  0  0  0  0
 18 19  1  0  0  0  0
 18 48  1  0  0  0  0
 19 20  1  0  0  0  0
 19 24  2  0  0  0  0
 20 21  1  0  0  0  0
 20 22  1  0  0  0  0
 20 23  1  0  0  0  0
 21 49  1  0  0  0  0
 21 50  1  0  0  0  0
 21 51  1  0  0  0  0
 22 52  1  0  0  0  0
 22 53  1  0  0  0  0
 22 54  1  0  0  0  0
 23 55  1  0  0  0  0
 24 25  1  0  0  0  0
 24 56  1  0  0  0  0
 26 27  1  0  0  0  0
 26 32  2  0  0  0  0
 27 28  2  0  0  0  0
 27 57  1  0  0  0  0
 28 29  1  0  0  0  0
 28 30  1  0  0  0  0
 30 31  2  0  0  0  0
 30 58  1  0  0  0  0
 31 32  1  0  0  0  0
 31 59  1  0  0  0  0
 32 33  1  0  0  0  0
 33 34  2  0  0  0  0
M  END
$$$$
