
 OpenBabel07202414193D

 41 44  0  0  0  0  0  0  0  0999 V2000
    1.4977    0.1870   -0.9434 O   0  0  0  0  0  0  0  0  0  0  0  0
    2.5465    0.0530   -0.3308 C   0  0  0  0  0  0  0  0  0  0  0  0
    3.0082   -1.2942    0.2255 C   0  0  0  0  0  0  0  0  0  0  0  0
    2.4936   -1.5551    1.6274 C   0  0  0  0  0  0  0  0  0  0  0  0
    1.2291   -1.0855    1.9990 C   0  0  0  0  0  0  0  0  0  0  0  0
    0.6820   -1.2362    3.2215 N   0  0  0  0  0  0  0  0  0  0  0  0
    1.4268   -1.8862    4.1365 C   0  0  0  0  0  0  0  0  0  0  0  0
    2.7000   -2.4017    3.9013 C   0  0  0  0  0  0  0  0  0  0  0  0
    3.4272   -3.0312    4.9281 C   0  0  0  0  0  0  0  0  0  0  0  0
    4.6967   -3.5484    4.6837 C   0  0  0  0  0  0  0  0  0  0  0  0
    5.2290   -3.4821    3.4021 C   0  0  0  0  0  0  0  0  0  0  0  0
    4.5094   -2.8629    2.3745 C   0  0  0  0  0  0  0  0  0  0  0  0
    3.2427   -2.2701    2.6023 C   0  0  0  0  0  0  0  0  0  0  0  0
    3.3592    1.1089    0.0064 N   0  0  0  0  0  0  0  0  0  0  0  0
    4.6093    1.0761    0.7687 C   0  0  0  0  0  0  0  0  0  0  0  0
    4.3942    2.5912    0.9443 C   0  0  0  0  0  0  0  0  0  0  0  0
    4.9615    3.4555   -0.1830 C   0  0  0  0  0  0  0  0  0  0  0  0
    4.7608    4.9078    0.1207 C   0  0  0  0  0  0  0  0  0  0  0  0
    3.6088    5.6738   -0.2595 C   0  0  0  0  0  0  0  0  0  0  0  0
    3.7003    6.9892    0.1185 C   0  0  0  0  0  0  0  0  0  0  0  0
    5.1563    7.3183    0.9533 S   0  0  0  0  0  0  0  0  0  0  0  0
    5.6656    5.6932    0.8053 C   0  0  0  0  0  0  0  0  0  0  0  0
    2.8921    2.2645    0.7947 C   0  0  0  0  0  0  0  0  0  0  0  0
    4.1014   -1.2887    0.2073 H   0  0  0  0  0  0  0  0  0  0  0  0
    2.6893   -2.0864   -0.4524 H   0  0  0  0  0  0  0  0  0  0  0  0
    0.5915   -0.5411    1.3045 H   0  0  0  0  0  0  0  0  0  0  0  0
    0.9470   -1.9899    5.1061 H   0  0  0  0  0  0  0  0  0  0  0  0
    3.0099   -3.1128    5.9299 H   0  0  0  0  0  0  0  0  0  0  0  0
    5.2605   -4.0116    5.4894 H   0  0  0  0  0  0  0  0  0  0  0  0
    6.2071   -3.9121    3.1999 H   0  0  0  0  0  0  0  0  0  0  0  0
    4.9572   -2.8619    1.3845 H   0  0  0  0  0  0  0  0  0  0  0  0
    5.4743    0.7490    0.1881 H   0  0  0  0  0  0  0  0  0  0  0  0
    4.5299    0.4938    1.6928 H   0  0  0  0  0  0  0  0  0  0  0  0
    4.7062    2.9287    1.9398 H   0  0  0  0  0  0  0  0  0  0  0  0
    4.4851    3.2161   -1.1451 H   0  0  0  0  0  0  0  0  0  0  0  0
    6.0310    3.2532   -0.3161 H   0  0  0  0  0  0  0  0  0  0  0  0
    2.7541    5.2723   -0.7981 H   0  0  0  0  0  0  0  0  0  0  0  0
    2.9857    7.7827   -0.0592 H   0  0  0  0  0  0  0  0  0  0  0  0
    6.6177    5.3907    1.2213 H   0  0  0  0  0  0  0  0  0  0  0  0
    2.2805    2.9858    0.2527 H   0  0  0  0  0  0  0  0  0  0  0  0
    2.3866    1.9534    1.7167 H   0  0  0  0  0  0  0  0  0  0  0  0
  1  2  2  0  0  0  0
  2  3  1  0  0  0  0
  2 14  1  0  0  0  0
  3  4  1  0  0  0  0
  3 24  1  0  0  0  0
  3 25  1  0  0  0  0
  4  5  1  0  0  0  0
  4 13  2  0  0  0  0
  5  6  2  0  0  0  0
  5 26  1  0  0  0  0
  6  7  1  0  0  0  0
  7  8  2  0  0  0  0
  7 27  1  0  0  0  0
  8  9  1  0  0  0  0
  8 13  1  0  0  0  0
  9 10  2  0  0  0  0
  9 28  1  0  0  0  0
 10 11  1  0  0  0  0
 10 29  1  0  0  0  0
 11 12  2  0  0  0  0
 11 30  1  0  0  0  0
 12 13  1  0  0  0  0
 12 31  1  0  0  0  0
 14 15  1  0  0  0  0
 14 23  1  0  0  0  0
 15 16  1  0  0  0  0
 15 32  1  0  0  0  0
 15 33  1  0  0  0  0
 16 17  1  0  0  0  0
 16 23  1  0  0  0  0
 16 34  1  0  0  0  0
 17 18  1  0  0  0  0
 17 35  1  0  0  0  0
 17 36  1  0  0  0  0
 18 19  1  0  0  0  0
 18 22  2  0  0  0  0
 19 20  2  0  0  0  0
 19 37  1  0  0  0  0
 20 21  1  0  0  0  0
 20 38  1  0  0  0  0
 21 22  1  0  0  0  0
 22 39  1  0  0  0  0
 23 40  1  0  0  0  0
 23 41  1  0  0  0  0
M  END
$$$$
