
 OpenBabel07202414193D

 44 47  0  0  1  0  0  0  0  0999 V2000
    3.7393   -0.3048   -1.0227 N   0  0  0  0  0  0  0  0  0  0  0  0
    2.8763    0.3416   -0.0145 C   0  0  0  0  0  0  0  0  0  0  0  0
    3.3282    0.2010    1.4824 C   0  0  2  0  0  0  0  0  0  0  0  0
    4.6418    0.9801    1.8809 C   0  0  0  0  0  0  0  0  0  0  0  0
    4.9198    1.2534    3.0514 O   0  0  0  0  0  0  0  0  0  0  0  0
    5.5122    1.2395    0.8386 N   0  0  0  0  0  0  0  0  0  0  0  0
    6.8540    1.6591    0.9471 C   0  0  0  0  0  0  0  0  0  0  0  0
    7.2168    2.9079    1.4610 C   0  0  0  0  0  0  0  0  0  0  0  0
    8.3837    3.5018    1.1064 N   0  0  0  0  0  0  0  0  0  0  0  0
    9.2499    2.7479    0.3939 C   0  0  0  0  0  0  0  0  0  0  0  0
    9.1441    1.3769    0.2202 C   0  0  0  0  0  0  0  0  0  0  0  0
   10.2133    0.5393   -0.1312 C   0  0  0  0  0  0  0  0  0  0  0  0
   10.0091   -0.8228   -0.3235 C   0  0  0  0  0  0  0  0  0  0  0  0
    8.7158   -1.3435   -0.2506 C   0  0  0  0  0  0  0  0  0  0  0  0
    7.6404   -0.5101    0.0988 C   0  0  0  0  0  0  0  0  0  0  0  0
    7.8577    0.8323    0.4147 C   0  0  0  0  0  0  0  0  0  0  0  0
    3.5591   -1.2908    1.8348 C   0  0  0  0  0  0  0  0  0  0  0  0
    2.2283   -2.0212    1.9305 C   0  0  0  0  0  0  0  0  0  0  0  0
    1.4297   -1.5069    2.9942 O   0  0  0  0  0  0  0  0  0  0  0  0
    1.3237   -0.1423    3.0239 C   0  0  0  0  0  0  0  0  0  0  0  0
    0.3076    0.3580    3.8415 C   0  0  0  0  0  0  0  0  0  0  0  0
    0.0967    1.7315    3.9344 C   0  0  0  0  0  0  0  0  0  0  0  0
    0.8910    2.6087    3.2094 C   0  0  0  0  0  0  0  0  0  0  0  0
    0.6258    4.3006    3.3032 Cl  0  0  0  0  0  0  0  0  0  0  0  0
    1.9201    2.1178    2.3987 C   0  0  0  0  0  0  0  0  0  0  0  0
    2.1610    0.7306    2.3251 C   0  0  0  0  0  0  0  0  0  0  0  0
    3.3028   -0.1536   -1.9431 H   0  0  0  0  0  0  0  0  0  0  0  0
    3.6869   -1.3209   -0.9169 H   0  0  0  0  0  0  0  0  0  0  0  0
    1.8715   -0.0853   -0.1436 H   0  0  0  0  0  0  0  0  0  0  0  0
    2.7837    1.3986   -0.2901 H   0  0  0  0  0  0  0  0  0  0  0  0
    5.2911    0.7300   -0.0197 H   0  0  0  0  0  0  0  0  0  0  0  0
    6.5605    3.5137    2.0717 H   0  0  0  0  0  0  0  0  0  0  0  0
   10.0184    3.3093   -0.1467 H   0  0  0  0  0  0  0  0  0  0  0  0
   11.2316    0.9325   -0.1624 H   0  0  0  0  0  0  0  0  0  0  0  0
   10.8430   -1.4819   -0.5266 H   0  0  0  0  0  0  0  0  0  0  0  0
    8.5391   -2.3950   -0.4364 H   0  0  0  0  0  0  0  0  0  0  0  0
    6.6615   -0.9716    0.2047 H   0  0  0  0  0  0  0  0  0  0  0  0
    4.0675   -1.3724    2.8037 H   0  0  0  0  0  0  0  0  0  0  0  0
    4.2119   -1.7898    1.1087 H   0  0  0  0  0  0  0  0  0  0  0  0
    2.4020   -3.0817    2.1442 H   0  0  0  0  0  0  0  0  0  0  0  0
    1.6509   -1.9893    0.9982 H   0  0  0  0  0  0  0  0  0  0  0  0
   -0.3171   -0.3286    4.4073 H   0  0  0  0  0  0  0  0  0  0  0  0
   -0.6892    2.1080    4.5752 H   0  0  0  0  0  0  0  0  0  0  0  0
    2.5439    2.8171    1.8544 H   0  0  0  0  0  0  0  0  0  0  0  0
  1  2  1  0  0  0  0
  1 27  1  0  0  0  0
  1 28  1  0  0  0  0
  2  3  1  0  0  0  0
  2 29  1  0  0  0  0
  2 30  1  0  0  0  0
  3  4  1  1  0  0  0
  3 17  1  0  0  0  0
  3 26  1  0  0  0  0
  4  5  2  0  0  0  0
  4  6  1  0  0  0  0
  6  7  1  0  0  0  0
  6 31  1  0  0  0  0
  7  8  1  0  0  0  0
  7 16  2  0  0  0  0
  8  9  2  0  0  0  0
  8 32  1  0  0  0  0
  9 10  1  0  0  0  0
 10 11  2  0  0  0  0
 10 33  1  0  0  0  0
 11 12  1  0  0  0  0
 11 16  1  0  0  0  0
 12 13  2  0  0  0  0
 12 34  1  0  0  0  0
 13 14  1  0  0  0  0
 13 35  1  0  0  0  0
 14 15  2  0  0  0  0
 14 36  1  0  0  0  0
 15 16  1  0  0  0  0
 15 37  1  0  0  0  0
 17 18  1  0  0  0  0
 17 38  1  0  0  0  0
 17 39  1  0  0  0  0
 18 19  1  0  0  0  0
 18 40  1  0  0  0  0
 18 41  1  0  0  0  0
 19 20  1  0  0  0  0
 20 21  1  0  0  0  0
 20 26  2  0  0  0  0
 21 22  2  0  0  0  0
 21 42  1  0  0  0  0
 22 23  1  0  0  0  0
 22 43  1  0  0  0  0
 23 24  1  0  0  0  0
 23 25  2  0  0  0  0
 25 26  1  0  0  0  0
 25 44  1  0  0  0  0
M  END
$$$$
