
 OpenBabel07202414133D

 53 56  0  0  0  0  0  0  0  0999 V2000
    3.3673    1.7148    0.0318 C   0  0  0  0  0  0  0  0  0  0  0  0
    4.2642    0.5838   -0.4525 C   0  0  0  0  0  0  0  0  0  0  0  0
    4.2686   -0.6023    0.5056 C   0  0  0  0  0  0  0  0  0  0  0  0
    3.6245   -0.5891    1.5475 O   0  0  0  0  0  0  0  0  0  0  0  0
    5.0788   -1.6412    0.0595 N   0  0  0  0  0  0  0  0  0  0  0  0
    5.3672   -2.8541    0.7374 C   0  0  0  0  0  0  0  0  0  0  0  0
    4.8248   -3.2055    1.9765 C   0  0  0  0  0  0  0  0  0  0  0  0
    5.2324   -4.3741    2.6416 C   0  0  0  0  0  0  0  0  0  0  0  0
    6.1911   -5.2079    2.0695 C   0  0  0  0  0  0  0  0  0  0  0  0
    6.7478   -6.2900    2.8007 N   0  0  0  0  0  0  0  0  0  0  0  0
    7.9479   -5.9960    3.5932 C   0  0  0  0  0  0  0  0  0  0  0  0
    7.6502   -5.6215    5.0338 C   0  0  0  0  0  0  0  0  0  0  0  0
    7.5146   -6.6168    6.0209 C   0  0  0  0  0  0  0  0  0  0  0  0
    7.2262   -6.2715    7.3482 C   0  0  0  0  0  0  0  0  0  0  0  0
    7.0853   -4.9333    7.7061 C   0  0  0  0  0  0  0  0  0  0  0  0
    7.2265   -3.9372    6.7412 C   0  0  0  0  0  0  0  0  0  0  0  0
    7.5102   -4.2814    5.4159 C   0  0  0  0  0  0  0  0  0  0  0  0
    6.2171   -7.5820    2.8329 C   0  0  0  0  0  0  0  0  0  0  0  0
    6.7907   -8.5136    3.3943 O   0  0  0  0  0  0  0  0  0  0  0  0
    4.9900   -7.7087    2.2534 N   0  0  0  0  0  0  0  0  0  0  0  0
    4.2988   -8.8706    2.3091 N   0  0  0  0  0  0  0  0  0  0  0  0
    3.5608   -9.2556    1.2453 N   0  0  0  0  0  0  0  0  0  0  0  0
    2.4203   -9.7600    1.7016 N   0  0  0  0  0  0  0  0  0  0  0  0
    2.4848   -9.7799    3.0678 C   0  0  0  0  0  0  0  0  0  0  0  0
    1.5280  -10.1479    4.0261 C   0  0  0  0  0  0  0  0  0  0  0  0
    1.8865  -10.1174    5.3804 C   0  0  0  0  0  0  0  0  0  0  0  0
    3.1753   -9.7502    5.7700 C   0  0  0  0  0  0  0  0  0  0  0  0
    4.1223   -9.3289    4.8307 C   0  0  0  0  0  0  0  0  0  0  0  0
    3.7303   -9.3247    3.4842 C   0  0  0  0  0  0  0  0  0  0  0  0
    6.6931   -4.9009    0.8027 C   0  0  0  0  0  0  0  0  0  0  0  0
    6.2804   -3.7338    0.1405 C   0  0  0  0  0  0  0  0  0  0  0  0
    3.3611    2.5391   -0.6886 H   0  0  0  0  0  0  0  0  0  0  0  0
    3.7142    2.1085    0.9935 H   0  0  0  0  0  0  0  0  0  0  0  0
    2.3354    1.3725    0.1651 H   0  0  0  0  0  0  0  0  0  0  0  0
    5.2892    0.9566   -0.5548 H   0  0  0  0  0  0  0  0  0  0  0  0
    3.9187    0.2431   -1.4344 H   0  0  0  0  0  0  0  0  0  0  0  0
    5.5574   -1.4958   -0.8211 H   0  0  0  0  0  0  0  0  0  0  0  0
    4.0937   -2.5759    2.4752 H   0  0  0  0  0  0  0  0  0  0  0  0
    4.8199   -4.5969    3.6235 H   0  0  0  0  0  0  0  0  0  0  0  0
    8.5142   -5.1877    3.1123 H   0  0  0  0  0  0  0  0  0  0  0  0
    8.6107   -6.8709    3.5802 H   0  0  0  0  0  0  0  0  0  0  0  0
    7.6331   -7.6644    5.7617 H   0  0  0  0  0  0  0  0  0  0  0  0
    7.1293   -7.0490    8.0986 H   0  0  0  0  0  0  0  0  0  0  0  0
    6.8567   -4.6673    8.7328 H   0  0  0  0  0  0  0  0  0  0  0  0
    7.1226   -2.8939    7.0226 H   0  0  0  0  0  0  0  0  0  0  0  0
    7.6181   -3.4841    4.6747 H   0  0  0  0  0  0  0  0  0  0  0  0
    4.7925   -7.2035    1.4053 H   0  0  0  0  0  0  0  0  0  0  0  0
    0.5284  -10.4375    3.7204 H   0  0  0  0  0  0  0  0  0  0  0  0
    1.1537  -10.3898    6.1368 H   0  0  0  0  0  0  0  0  0  0  0  0
    3.4464   -9.7727    6.8240 H   0  0  0  0  0  0  0  0  0  0  0  0
    5.1190   -9.0322    5.1410 H   0  0  0  0  0  0  0  0  0  0  0  0
    7.4291   -5.5496    0.3340 H   0  0  0  0  0  0  0  0  0  0  0  0
    6.7096   -3.5139   -0.8338 H   0  0  0  0  0  0  0  0  0  0  0  0
  1  2  1  0  0  0  0
  1 32  1  0  0  0  0
  1 33  1  0  0  0  0
  1 34  1  0  0  0  0
  2  3  1  0  0  0  0
  2 35  1  0  0  0  0
  2 36  1  0  0  0  0
  3  4  2  0  0  0  0
  3  5  1  0  0  0  0
  5  6  1  0  0  0  0
  5 37  1  0  0  0  0
  6  7  1  0  0  0  0
  6 31  2  0  0  0  0
  7  8  2  0  0  0  0
  7 38  1  0  0  0  0
  8  9  1  0  0  0  0
  8 39  1  0  0  0  0
  9 10  1  0  0  0  0
  9 30  2  0  0  0  0
 10 11  1  0  0  0  0
 10 18  1  0  0  0  0
 11 12  1  0  0  0  0
 11 40  1  0  0  0  0
 11 41  1  0  0  0  0
 12 13  1  0  0  0  0
 12 17  2  0  0  0  0
 13 14  2  0  0  0  0
 13 42  1  0  0  0  0
 14 15  1  0  0  0  0
 14 43  1  0  0  0  0
 15 16  2  0  0  0  0
 15 44  1  0  0  0  0
 16 17  1  0  0  0  0
 16 45  1  0  0  0  0
 17 46  1  0  0  0  0
 18 19  2  0  0  0  0
 18 20  1  0  0  0  0
 20 21  1  0  0  0  0
 20 47  1  0  0  0  0
 21 22  1  0  0  0  0
 21 29  1  0  0  0  0
 22 23  2  0  0  0  0
 23 24  1  0  0  0  0
 24 25  1  0  0  0  0
 24 29  2  0  0  0  0
 25 26  2  0  0  0  0
 25 48  1  0  0  0  0
 26 27  1  0  0  0  0
 26 49  1  0  0  0  0
 27 28  2  0  0  0  0
 27 50  1  0  0  0  0
 28 29  1  0  0  0  0
 28 51  1  0  0  0  0
 30 31  1  0  0  0  0
 30 52  1  0  0  0  0
 31 53  1  0  0  0  0
M  END
$$$$
