
 OpenBabel07202414123D

 73 77  0  0  1  0  0  0  0  0999 V2000
    1.2810   -0.4075   -0.3128 C   0  0  0  0  0  0  0  0  0  0  0  0
    2.7026    0.0080    0.1362 C   0  0  0  0  0  0  0  0  0  0  0  0
    2.7810   -0.0752    1.6701 C   0  0  0  0  0  0  0  0  0  0  0  0
    3.6606   -1.0481   -0.4693 C   0  0  0  0  0  0  0  0  0  0  0  0
    3.0641    1.4399   -0.2910 C   0  0  0  0  0  0  0  0  0  0  0  0
    2.0943    2.4265   -0.5039 C   0  0  0  0  0  0  0  0  0  0  0  0
    2.4267    3.7059   -0.9963 C   0  0  0  0  0  0  0  0  0  0  0  0
    3.7469    4.0730   -1.2819 C   0  0  0  0  0  0  0  0  0  0  0  0
    4.0990    5.3073   -1.9846 N   0  0  0  0  0  0  0  0  0  0  0  0
    5.4455    5.3922   -2.6302 C   0  0  3  0  0  0  0  0  0  0  0  0
    6.4941    6.0333   -1.6652 C   0  0  0  0  0  0  0  0  0  0  0  0
    6.7975    5.5374   -0.5797 O   0  0  0  0  0  0  0  0  0  0  0  0
    7.1437    7.1429   -2.1612 N   0  0  0  0  0  0  0  0  0  0  0  0
    8.2737    7.7592   -1.4777 C   0  0  0  0  0  0  0  0  0  0  0  0
    9.5856    7.0559   -1.8477 C   0  0  0  0  0  0  0  0  0  0  0  0
   10.8002    7.5980   -1.1316 C   0  0  0  0  0  0  0  0  0  0  0  0
   11.1834    7.0676    0.1102 C   0  0  0  0  0  0  0  0  0  0  0  0
   12.3407    7.5180    0.7538 C   0  0  0  0  0  0  0  0  0  0  0  0
   13.1224    8.5103    0.1671 C   0  0  0  0  0  0  0  0  0  0  0  0
   12.7355    9.0485   -1.0542 C   0  0  0  0  0  0  0  0  0  0  0  0
   13.4896    9.9998   -1.6217 F   0  0  0  0  0  0  0  0  0  0  0  0
   11.5851    8.6072   -1.7049 C   0  0  0  0  0  0  0  0  0  0  0  0
    6.0038    4.1913   -3.4127 C   0  0  0  0  0  0  0  0  0  0  0  0
    5.2984    3.6425   -4.4926 C   0  0  0  0  0  0  0  0  0  0  0  0
    5.9344    2.7547   -5.3614 C   0  0  0  0  0  0  0  0  0  0  0  0
    7.2555    2.4224   -5.1176 C   0  0  0  0  0  0  0  0  0  0  0  0
    7.9519    2.8743   -4.0579 N   0  0  0  0  0  0  0  0  0  0  0  0
    7.3143    3.7377   -3.2333 C   0  0  0  0  0  0  0  0  0  0  0  0
    3.1943    6.4310   -2.0223 C   0  0  0  0  0  0  0  0  0  0  0  0
    2.1010    6.4359   -1.4556 O   0  0  0  0  0  0  0  0  0  0  0  0
    3.5422    7.6743   -2.7822 C   0  0  0  0  0  0  0  0  0  0  0  0
    2.6713    8.7269   -3.0613 C   0  0  0  0  0  0  0  0  0  0  0  0
    3.3527    9.6017   -3.8809 N   0  0  0  0  0  0  0  0  0  0  0  0
    2.9422   10.7749   -4.5076 C   0  0  0  0  0  0  0  0  0  0  0  0
    3.8006   11.4216   -5.3228 C   0  0  0  0  0  0  0  0  0  0  0  0
    5.1350   10.8684   -5.5248 C   0  0  0  0  0  0  0  0  0  0  0  0
    5.5292    9.7479   -4.8984 C   0  0  0  0  0  0  0  0  0  0  0  0
    4.6249    9.0731   -4.0320 C   0  0  0  0  0  0  0  0  0  0  0  0
    4.7788    7.9779   -3.3305 N   0  0  0  0  0  0  0  0  0  0  0  0
    4.7164    3.1357   -0.9018 C   0  0  0  0  0  0  0  0  0  0  0  0
    4.3909    1.8479   -0.4397 C   0  0  0  0  0  0  0  0  0  0  0  0
    1.0704   -1.4498   -0.0443 H   0  0  0  0  0  0  0  0  0  0  0  0
    1.1675   -0.3186   -1.4002 H   0  0  0  0  0  0  0  0  0  0  0  0
    0.5006    0.1972    0.1603 H   0  0  0  0  0  0  0  0  0  0  0  0
    2.4937   -1.0703    2.0284 H   0  0  0  0  0  0  0  0  0  0  0  0
    2.1141    0.6551    2.1427 H   0  0  0  0  0  0  0  0  0  0  0  0
    3.7969    0.1255    2.0298 H   0  0  0  0  0  0  0  0  0  0  0  0
    3.3545   -2.0634   -0.1871 H   0  0  0  0  0  0  0  0  0  0  0  0
    4.6923   -0.9303   -0.1228 H   0  0  0  0  0  0  0  0  0  0  0  0
    3.6660   -0.9981   -1.5647 H   0  0  0  0  0  0  0  0  0  0  0  0
    1.0427    2.2286   -0.3150 H   0  0  0  0  0  0  0  0  0  0  0  0
    1.5847    4.3645   -1.1795 H   0  0  0  0  0  0  0  0  0  0  0  0
    5.3452    6.0516   -3.4855 H   0  0  0  0  0  0  0  0  0  0  0  0
    6.6131    7.7032   -2.8318 H   0  0  0  0  0  0  0  0  0  0  0  0
    8.0993    7.7206   -0.3981 H   0  0  0  0  0  0  0  0  0  0  0  0
    8.3060    8.8094   -1.7785 H   0  0  0  0  0  0  0  0  0  0  0  0
    9.7461    7.1247   -2.9307 H   0  0  0  0  0  0  0  0  0  0  0  0
    9.5084    5.9789   -1.6400 H   0  0  0  0  0  0  0  0  0  0  0  0
   10.5912    6.2811    0.5751 H   0  0  0  0  0  0  0  0  0  0  0  0
   12.6356    7.0847    1.7064 H   0  0  0  0  0  0  0  0  0  0  0  0
   14.0292    8.8617    0.6490 H   0  0  0  0  0  0  0  0  0  0  0  0
   11.3297    9.0434   -2.6661 H   0  0  0  0  0  0  0  0  0  0  0  0
    4.2715    3.9389   -4.6925 H   0  0  0  0  0  0  0  0  0  0  0  0
    5.4223    2.3548   -6.2303 H   0  0  0  0  0  0  0  0  0  0  0  0
    7.8099    1.7756   -5.7918 H   0  0  0  0  0  0  0  0  0  0  0  0
    7.9385    4.0753   -2.4095 H   0  0  0  0  0  0  0  0  0  0  0  0
    1.6388    8.8905   -2.7885 H   0  0  0  0  0  0  0  0  0  0  0  0
    1.9343   11.1259   -4.3215 H   0  0  0  0  0  0  0  0  0  0  0  0
    3.5336   12.3329   -5.8462 H   0  0  0  0  0  0  0  0  0  0  0  0
    5.8057   11.3840   -6.2081 H   0  0  0  0  0  0  0  0  0  0  0  0
    6.5141    9.3240   -5.0557 H   0  0  0  0  0  0  0  0  0  0  0  0
    5.7756    3.3613   -0.9375 H   0  0  0  0  0  0  0  0  0  0  0  0
    5.2157    1.1785   -0.2072 H   0  0  0  0  0  0  0  0  0  0  0  0
  1  2  1  0  0  0  0
  1 42  1  0  0  0  0
  1 43  1  0  0  0  0
  1 44  1  0  0  0  0
  2  3  1  0  0  0  0
  2  4  1  0  0  0  0
  2  5  1  0  0  0  0
  3 45  1  0  0  0  0
  3 46  1  0  0  0  0
  3 47  1  0  0  0  0
  4 48  1  0  0  0  0
  4 49  1  0  0  0  0
  4 50  1  0  0  0  0
  5  6  1  0  0  0  0
  5 41  2  0  0  0  0
  6  7  2  0  0  0  0
  6 51  1  0  0  0  0
  7  8  1  0  0  0  0
  7 52  1  0  0  0  0
  8  9  1  0  0  0  0
  8 40  2  0  0  0  0
  9 10  1  0  0  0  0
  9 29  1  0  0  0  0
 10 11  1  0  0  0  0
 10 23  1  0  0  0  0
 10 53  1  0  0  0  0
 11 12  2  0  0  0  0
 11 13  1  0  0  0  0
 13 14  1  0  0  0  0
 13 54  1  0  0  0  0
 14 15  1  0  0  0  0
 14 55  1  0  0  0  0
 14 56  1  0  0  0  0
 15 16  1  0  0  0  0
 15 57  1  0  0  0  0
 15 58  1  0  0  0  0
 16 17  1  0  0  0  0
 16 22  2  0  0  0  0
 17 18  2  0  0  0  0
 17 59  1  0  0  0  0
 18 19  1  0  0  0  0
 18 60  1  0  0  0  0
 19 20  2  0  0  0  0
 19 61  1  0  0  0  0
 20 21  1  0  0  0  0
 20 22  1  0  0  0  0
 22 62  1  0  0  0  0
 23 24  1  0  0  0  0
 23 28  2  0  0  0  0
 24 25  2  0  0  0  0
 24 63  1  0  0  0  0
 25 26  1  0  0  0  0
 25 64  1  0  0  0  0
 26 27  2  0  0  0  0
 26 65  1  0  0  0  0
 27 28  1  0  0  0  0
 28 66  1  0  0  0  0
 29 30  2  0  0  0  0
 29 31  1  0  0  0  0
 31 32  2  0  0  0  0
 31 39  1  0  0  0  0
 32 33  1  0  0  0  0
 32 67  1  0  0  0  0
 33 34  1  0  0  0  0
 33 38  1  0  0  0  0
 34 35  2  0  0  0  0
 34 68  1  0  0  0  0
 35 36  1  0  0  0  0
 35 69  1  0  0  0  0
 36 37  2  0  0  0  0
 36 70  1  0  0  0  0
 37 38  1  0  0  0  0
 37 71  1  0  0  0  0
 38 39  2  0  0  0  0
 40 41  1  0  0  0  0
 40 72  1  0  0  0  0
 41 73  1  0  0  0  0
M  END
$$$$
