
 OpenBabel07202414123D

 33 34  0  0  1  0  0  0  0  0999 V2000
    2.9982   -1.3150    0.5602 C   0  0  0  0  0  0  0  0  0  0  0  0
    2.5406    0.0123   -0.0464 C   0  0  3  0  0  0  0  0  0  0  0  0
    2.8378    1.2106    0.8763 C   0  0  0  0  0  0  0  0  0  0  0  0
    1.5900    2.0750    0.8228 C   0  0  0  0  0  0  0  0  0  0  0  0
    0.5355    1.1744    0.4769 N   0  0  0  0  0  0  0  0  0  0  0  0
    1.0049    0.0282   -0.1268 C   0  0  0  0  0  0  0  0  0  0  0  0
    0.3034   -0.7554   -0.7427 O   0  0  0  0  0  0  0  0  0  0  0  0
    3.0273    0.1947   -1.4192 N   0  0  0  0  0  0  0  0  0  0  0  0
    4.3646    0.2295   -1.7474 C   0  0  0  0  0  0  0  0  0  0  0  0
    5.2623    0.2246   -0.9101 O   0  0  0  0  0  0  0  0  0  0  0  0
    4.6488    0.2903   -3.2377 C   0  0  0  0  0  0  0  0  0  0  0  0
    4.8493   -1.0619   -3.8832 C   0  0  0  0  0  0  0  0  0  0  0  0
    5.8146   -1.9580   -3.4001 C   0  0  0  0  0  0  0  0  0  0  0  0
    6.0406   -3.1805   -4.0403 C   0  0  0  0  0  0  0  0  0  0  0  0
    5.3094   -3.5180   -5.1784 C   0  0  0  0  0  0  0  0  0  0  0  0
    4.3524   -2.6335   -5.6675 C   0  0  0  0  0  0  0  0  0  0  0  0
    4.1190   -1.4120   -5.0295 C   0  0  0  0  0  0  0  0  0  0  0  0
    3.4590   -3.0389   -7.0816 Cl  0  0  0  0  0  0  0  0  0  0  0  0
    2.5341   -1.4828    1.5385 H   0  0  0  0  0  0  0  0  0  0  0  0
    4.0834   -1.3475    0.7011 H   0  0  0  0  0  0  0  0  0  0  0  0
    2.7206   -2.1594   -0.0804 H   0  0  0  0  0  0  0  0  0  0  0  0
    3.7256    1.7841    0.5914 H   0  0  0  0  0  0  0  0  0  0  0  0
    2.9897    0.8724    1.9093 H   0  0  0  0  0  0  0  0  0  0  0  0
    1.6573    2.8429    0.0459 H   0  0  0  0  0  0  0  0  0  0  0  0
    1.3651    2.5477    1.7828 H   0  0  0  0  0  0  0  0  0  0  0  0
   -0.4388    1.4309    0.3713 H   0  0  0  0  0  0  0  0  0  0  0  0
    2.3572    0.0166   -2.1611 H   0  0  0  0  0  0  0  0  0  0  0  0
    5.5508    0.8952   -3.3883 H   0  0  0  0  0  0  0  0  0  0  0  0
    3.8339    0.8345   -3.7283 H   0  0  0  0  0  0  0  0  0  0  0  0
    6.4090   -1.7079   -2.5221 H   0  0  0  0  0  0  0  0  0  0  0  0
    6.7922   -3.8620   -3.6550 H   0  0  0  0  0  0  0  0  0  0  0  0
    5.4951   -4.4638   -5.6797 H   0  0  0  0  0  0  0  0  0  0  0  0
    3.3767   -0.7324   -5.4385 H   0  0  0  0  0  0  0  0  0  0  0  0
  1  2  1  0  0  0  0
  1 19  1  0  0  0  0
  1 20  1  0  0  0  0
  1 21  1  0  0  0  0
  2  3  1  0  0  0  0
  2  6  1  0  0  0  0
  2  8  1  0  0  0  0
  3  4  1  0  0  0  0
  3 22  1  0  0  0  0
  3 23  1  0  0  0  0
  4  5  1  0  0  0  0
  4 24  1  0  0  0  0
  4 25  1  0  0  0  0
  5  6  1  0  0  0  0
  5 26  1  0  0  0  0
  6  7  2  0  0  0  0
  8  9  1  0  0  0  0
  8 27  1  0  0  0  0
  9 10  2  0  0  0  0
  9 11  1  0  0  0  0
 11 12  1  0  0  0  0
 11 28  1  0  0  0  0
 11 29  1  0  0  0  0
 12 13  1  0  0  0  0
 12 17  2  0  0  0  0
 13 14  2  0  0  0  0
 13 30  1  0  0  0  0
 14 15  1  0  0  0  0
 14 31  1  0  0  0  0
 15 16  2  0  0  0  0
 15 32  1  0  0  0  0
 16 17  1  0  0  0  0
 16 18  1  0  0  0  0
 17 33  1  0  0  0  0
M  END
$$$$
