
 OpenBabel07202414213D

 31 33  0  0  0  0  0  0  0  0999 V2000
   -2.0018   -0.9275    0.7649 C   0  0  0  0  0  0  0  0  0  0  0  0
   -2.2078    0.4515    0.7106 C   0  0  0  0  0  0  0  0  0  0  0  0
   -1.1542    1.3287    0.4438 C   0  0  0  0  0  0  0  0  0  0  0  0
    0.1198    0.7666    0.2824 C   0  0  0  0  0  0  0  0  0  0  0  0
    0.3482   -0.6035    0.3272 C   0  0  0  0  0  0  0  0  0  0  0  0
   -0.7276   -1.4739    0.5577 C   0  0  0  0  0  0  0  0  0  0  0  0
    1.6774   -0.8577    0.1140 N   0  0  0  0  0  0  0  0  0  0  0  0
    2.2963    0.3057   -0.0534 N   0  0  0  0  0  0  0  0  0  0  0  0
    1.3807    1.2789    0.0892 N   0  0  0  0  0  0  0  0  0  0  0  0
    1.6318    2.5611   -0.2555 N   0  0  0  0  0  0  0  0  0  0  0  0
    1.2715    3.5743    0.6008 C   0  0  0  0  0  0  0  0  0  0  0  0
    0.6761    3.4248    1.6638 O   0  0  0  0  0  0  0  0  0  0  0  0
    1.6279    4.9539    0.0771 C   0  0  0  0  0  0  0  0  0  0  0  0
    2.8505    5.5394    0.7327 C   0  0  0  0  0  0  0  0  0  0  0  0
    2.9080    5.6925    2.1247 C   0  0  0  0  0  0  0  0  0  0  0  0
    4.0354    6.2486    2.7324 C   0  0  0  0  0  0  0  0  0  0  0  0
    5.1109    6.6674    1.9517 C   0  0  0  0  0  0  0  0  0  0  0  0
    5.0540    6.5313    0.5664 C   0  0  0  0  0  0  0  0  0  0  0  0
    3.9315    5.9726   -0.0458 C   0  0  0  0  0  0  0  0  0  0  0  0
    6.3724    7.0638   -0.4019 Cl  0  0  0  0  0  0  0  0  0  0  0  0
   -2.8413   -1.5856    0.9779 H   0  0  0  0  0  0  0  0  0  0  0  0
   -3.2012    0.8573    0.8926 H   0  0  0  0  0  0  0  0  0  0  0  0
   -1.3170    2.4014    0.4217 H   0  0  0  0  0  0  0  0  0  0  0  0
   -0.5694   -2.5464    0.5890 H   0  0  0  0  0  0  0  0  0  0  0  0
    2.5111    2.6385   -0.7481 H   0  0  0  0  0  0  0  0  0  0  0  0
    0.7689    5.6149    0.2458 H   0  0  0  0  0  0  0  0  0  0  0  0
    1.7573    4.9032   -1.0111 H   0  0  0  0  0  0  0  0  0  0  0  0
    2.0766    5.3803    2.7548 H   0  0  0  0  0  0  0  0  0  0  0  0
    4.0701    6.3549    3.8130 H   0  0  0  0  0  0  0  0  0  0  0  0
    5.9842    7.1029    2.4279 H   0  0  0  0  0  0  0  0  0  0  0  0
    3.9019    5.8855   -1.1289 H   0  0  0  0  0  0  0  0  0  0  0  0
  1  2  1  0  0  0  0
  1  6  2  0  0  0  0
  1 21  1  0  0  0  0
  2  3  2  0  0  0  0
  2 22  1  0  0  0  0
  3  4  1  0  0  0  0
  3 23  1  0  0  0  0
  4  5  2  0  0  0  0
  4  9  1  0  0  0  0
  5  6  1  0  0  0  0
  5  7  1  0  0  0  0
  6 24  1  0  0  0  0
  7  8  2  0  0  0  0
  8  9  1  0  0  0  0
  9 10  1  0  0  0  0
 10 11  1  0  0  0  0
 10 25  1  0  0  0  0
 11 12  2  0  0  0  0
 11 13  1  0  0  0  0
 13 14  1  0  0  0  0
 13 26  1  0  0  0  0
 13 27  1  0  0  0  0
 14 15  1  0  0  0  0
 14 19  2  0  0  0  0
 15 16  2  0  0  0  0
 15 28  1  0  0  0  0
 16 17  1  0  0  0  0
 16 29  1  0  0  0  0
 17 18  2  0  0  0  0
 17 30  1  0  0  0  0
 18 19  1  0  0  0  0
 18 20  1  0  0  0  0
 19 31  1  0  0  0  0
M  END
$$$$
