
 OpenBabel07202414193D

 38 41  0  0  0  0  0  0  0  0999 V2000
    1.0902    0.1113   -0.2430 O   0  0  0  0  0  0  0  0  0  0  0  0
    2.3074    0.0420   -0.1139 C   0  0  0  0  0  0  0  0  0  0  0  0
    3.0254   -1.0930   -0.4418 N   0  0  0  0  0  0  0  0  0  0  0  0
    2.3776   -2.2791   -0.9603 C   0  0  0  0  0  0  0  0  0  0  0  0
    2.7924   -2.4889   -2.3800 C   0  0  0  0  0  0  0  0  0  0  0  0
    2.1508   -1.9795   -3.4950 C   0  0  0  0  0  0  0  0  0  0  0  0
    2.7809   -2.4459   -4.6150 N   0  0  0  0  0  0  0  0  0  0  0  0
    3.8367   -3.2544   -4.2636 C   0  0  0  0  0  0  0  0  0  0  0  0
    4.7402   -3.9552   -5.0748 C   0  0  0  0  0  0  0  0  0  0  0  0
    5.7282   -4.7097   -4.4383 C   0  0  0  0  0  0  0  0  0  0  0  0
    5.7962   -4.7504   -3.0523 C   0  0  0  0  0  0  0  0  0  0  0  0
    6.7559   -5.4805   -2.4670 F   0  0  0  0  0  0  0  0  0  0  0  0
    4.8893   -4.0558   -2.2500 C   0  0  0  0  0  0  0  0  0  0  0  0
    3.8804   -3.2883   -2.8665 C   0  0  0  0  0  0  0  0  0  0  0  0
    3.0803    1.2054    0.4109 C   0  0  0  0  0  0  0  0  0  0  0  0
    4.3528    1.4450   -0.1032 C   0  0  0  0  0  0  0  0  0  0  0  0
    5.1442    2.4805    0.2554 N   0  0  0  0  0  0  0  0  0  0  0  0
    4.6233    3.3478    1.1499 C   0  0  0  0  0  0  0  0  0  0  0  0
    3.3557    3.2347    1.7234 C   0  0  0  0  0  0  0  0  0  0  0  0
    2.8872    4.2002    2.6343 C   0  0  0  0  0  0  0  0  0  0  0  0
    1.6240    4.0849    3.2081 C   0  0  0  0  0  0  0  0  0  0  0  0
    0.8246    2.9962    2.8880 C   0  0  0  0  0  0  0  0  0  0  0  0
    1.2801    2.0329    1.9831 C   0  0  0  0  0  0  0  0  0  0  0  0
    2.5513    2.1272    1.3597 C   0  0  0  0  0  0  0  0  0  0  0  0
    4.0192   -1.1528   -0.2797 H   0  0  0  0  0  0  0  0  0  0  0  0
    1.2881   -2.1967   -0.8899 H   0  0  0  0  0  0  0  0  0  0  0  0
    2.6887   -3.1224   -0.3349 H   0  0  0  0  0  0  0  0  0  0  0  0
    1.2825   -1.3375   -3.5770 H   0  0  0  0  0  0  0  0  0  0  0  0
    2.5052   -2.2422   -5.5662 H   0  0  0  0  0  0  0  0  0  0  0  0
    4.6783   -3.9203   -6.1582 H   0  0  0  0  0  0  0  0  0  0  0  0
    6.4504   -5.2717   -5.0231 H   0  0  0  0  0  0  0  0  0  0  0  0
    4.9728   -4.1213   -1.1714 H   0  0  0  0  0  0  0  0  0  0  0  0
    4.7912    0.8085   -0.8669 H   0  0  0  0  0  0  0  0  0  0  0  0
    5.2806    4.1773    1.4011 H   0  0  0  0  0  0  0  0  0  0  0  0
    3.5042    5.0574    2.8972 H   0  0  0  0  0  0  0  0  0  0  0  0
    1.2667    4.8412    3.9025 H   0  0  0  0  0  0  0  0  0  0  0  0
   -0.1642    2.8969    3.3319 H   0  0  0  0  0  0  0  0  0  0  0  0
    0.6144    1.1998    1.7646 H   0  0  0  0  0  0  0  0  0  0  0  0
  1  2  2  0  0  0  0
  2  3  1  0  0  0  0
  2 15  1  0  0  0  0
  3  4  1  0  0  0  0
  3 25  1  0  0  0  0
  4  5  1  0  0  0  0
  4 26  1  0  0  0  0
  4 27  1  0  0  0  0
  5  6  2  0  0  0  0
  5 14  1  0  0  0  0
  6  7  1  0  0  0  0
  6 28  1  0  0  0  0
  7  8  1  0  0  0  0
  7 29  1  0  0  0  0
  8  9  1  0  0  0  0
  8 14  2  0  0  0  0
  9 10  2  0  0  0  0
  9 30  1  0  0  0  0
 10 11  1  0  0  0  0
 10 31  1  0  0  0  0
 11 12  1  0  0  0  0
 11 13  2  0  0  0  0
 13 14  1  0  0  0  0
 13 32  1  0  0  0  0
 15 16  1  0  0  0  0
 15 24  2  0  0  0  0
 16 17  2  0  0  0  0
 16 33  1  0  0  0  0
 17 18  1  0  0  0  0
 18 19  2  0  0  0  0
 18 34  1  0  0  0  0
 19 20  1  0  0  0  0
 19 24  1  0  0  0  0
 20 21  2  0  0  0  0
 20 35  1  0  0  0  0
 21 22  1  0  0  0  0
 21 36  1  0  0  0  0
 22 23  2  0  0  0  0
 22 37  1  0  0  0  0
 23 24  1  0  0  0  0
 23 38  1  0  0  0  0
M  END
$$$$
