
 OpenBabel07202414123D

 57 60  0  0  1  0  0  0  0  0999 V2000
    1.0453   -0.0024   -0.2681 C   0  0  0  0  0  0  0  0  0  0  0  0
    2.5801   -0.1081   -0.3821 C   0  0  0  0  0  0  0  0  0  0  0  0
    3.1497    1.1189    0.3260 C   0  0  0  0  0  0  0  0  0  0  0  0
    3.1032   -1.4624    0.1680 N   0  0  0  0  0  0  0  0  0  0  0  0
    2.4346   -2.5382   -0.6140 C   0  0  0  0  0  0  0  0  0  0  0  0
    4.8323   -1.5661    0.1701 S   0  0  0  0  0  0  0  0  0  0  0  0
    5.2274   -1.4998   -1.2222 O   0  0  0  0  0  0  0  0  0  0  0  0
    5.3742   -0.6251    1.1076 O   0  0  0  0  0  0  0  0  0  0  0  0
    5.2993   -3.1085    0.6842 N   0  0  0  0  0  0  0  0  0  0  0  0
    4.7399   -4.3177    0.0487 C   0  0  0  0  0  0  0  0  0  0  0  0
    5.5432   -5.5975    0.2502 C   0  0  3  0  0  0  0  0  0  0  0  0
    6.6585   -5.8260   -0.7685 C   0  0  0  0  0  0  0  0  0  0  0  0
    7.0257   -6.9729   -1.0547 O   0  0  0  0  0  0  0  0  0  0  0  0
    7.2128   -4.6731   -1.2917 N   0  0  0  0  0  0  0  0  0  0  0  0
    8.2669   -4.5848   -2.2333 C   0  0  0  0  0  0  0  0  0  0  0  0
    8.6461   -5.6519   -3.0461 C   0  0  0  0  0  0  0  0  0  0  0  0
    9.8406   -5.7211   -3.6717 N   0  0  0  0  0  0  0  0  0  0  0  0
   10.6274   -4.6291   -3.5732 C   0  0  0  0  0  0  0  0  0  0  0  0
   10.2069   -3.3965   -3.0758 C   0  0  0  0  0  0  0  0  0  0  0  0
   10.9459   -2.2138   -3.2889 C   0  0  0  0  0  0  0  0  0  0  0  0
   10.5355   -1.0104   -2.7256 C   0  0  0  0  0  0  0  0  0  0  0  0
    9.4136   -0.9856   -1.9098 C   0  0  0  0  0  0  0  0  0  0  0  0
    8.6606   -2.1445   -1.7237 C   0  0  0  0  0  0  0  0  0  0  0  0
    9.0110   -3.3763   -2.3380 C   0  0  0  0  0  0  0  0  0  0  0  0
    5.9298   -5.7509    1.7043 C   0  0  0  0  0  0  0  0  0  0  0  0
    6.1092   -7.0373    2.2397 C   0  0  0  0  0  0  0  0  0  0  0  0
    6.4861   -7.2010    3.5698 C   0  0  0  0  0  0  0  0  0  0  0  0
    6.6740   -8.7825    4.2175 Cl  0  0  0  0  0  0  0  0  0  0  0  0
    6.6986   -6.0910    4.3823 C   0  0  0  0  0  0  0  0  0  0  0  0
    6.4656   -4.8115    3.8768 C   0  0  0  0  0  0  0  0  0  0  0  0
    6.0408   -4.6286    2.5494 C   0  0  0  0  0  0  0  0  0  0  0  0
    5.6356   -3.2318    2.1103 C   0  0  0  0  0  0  0  0  0  0  0  0
    0.6974    0.9875   -0.5849 H   0  0  0  0  0  0  0  0  0  0  0  0
    0.7107   -0.1739    0.7600 H   0  0  0  0  0  0  0  0  0  0  0  0
    0.5189   -0.7033   -0.9214 H   0  0  0  0  0  0  0  0  0  0  0  0
    2.8421   -0.0562   -1.4473 H   0  0  0  0  0  0  0  0  0  0  0  0
    3.0161    1.0536    1.4100 H   0  0  0  0  0  0  0  0  0  0  0  0
    2.6418    2.0281   -0.0204 H   0  0  0  0  0  0  0  0  0  0  0  0
    4.2075    1.2690    0.1019 H   0  0  0  0  0  0  0  0  0  0  0  0
    1.3570   -2.4148   -0.6744 H   0  0  0  0  0  0  0  0  0  0  0  0
    2.4918   -3.4861   -0.1049 H   0  0  0  0  0  0  0  0  0  0  0  0
    2.8324   -2.6015   -1.6313 H   0  0  0  0  0  0  0  0  0  0  0  0
    4.5757   -4.1491   -1.0225 H   0  0  0  0  0  0  0  0  0  0  0  0
    3.7969   -4.5295    0.5544 H   0  0  0  0  0  0  0  0  0  0  0  0
    4.8271   -6.4010    0.0173 H   0  0  0  0  0  0  0  0  0  0  0  0
    7.0250   -3.8330   -0.7581 H   0  0  0  0  0  0  0  0  0  0  0  0
    8.0097   -6.5184   -3.2051 H   0  0  0  0  0  0  0  0  0  0  0  0
   11.6638   -4.7910   -3.8576 H   0  0  0  0  0  0  0  0  0  0  0  0
   11.8231   -2.2211   -3.9332 H   0  0  0  0  0  0  0  0  0  0  0  0
   11.0861   -0.0929   -2.9171 H   0  0  0  0  0  0  0  0  0  0  0  0
    9.1047   -0.0636   -1.4228 H   0  0  0  0  0  0  0  0  0  0  0  0
    7.7806   -2.0578   -1.1017 H   0  0  0  0  0  0  0  0  0  0  0  0
    5.9330   -7.9154    1.6197 H   0  0  0  0  0  0  0  0  0  0  0  0
    7.0201   -6.2162    5.4121 H   0  0  0  0  0  0  0  0  0  0  0  0
    6.6008   -3.9536    4.5343 H   0  0  0  0  0  0  0  0  0  0  0  0
    6.4840   -2.5718    2.3305 H   0  0  0  0  0  0  0  0  0  0  0  0
    4.7722   -2.9182    2.7088 H   0  0  0  0  0  0  0  0  0  0  0  0
  1  2  1  0  0  0  0
  1 33  1  0  0  0  0
  1 34  1  0  0  0  0
  1 35  1  0  0  0  0
  2  3  1  0  0  0  0
  2  4  1  0  0  0  0
  2 36  1  0  0  0  0
  3 37  1  0  0  0  0
  3 38  1  0  0  0  0
  3 39  1  0  0  0  0
  4  5  1  0  0  0  0
  4  6  1  0  0  0  0
  5 40  1  0  0  0  0
  5 41  1  0  0  0  0
  5 42  1  0  0  0  0
  6  7  2  0  0  0  0
  6  8  2  0  0  0  0
  6  9  1  0  0  0  0
  9 10  1  0  0  0  0
  9 32  1  0  0  0  0
 10 11  1  0  0  0  0
 10 43  1  0  0  0  0
 10 44  1  0  0  0  0
 11 12  1  0  0  0  0
 11 25  1  0  0  0  0
 11 45  1  0  0  0  0
 12 13  2  0  0  0  0
 12 14  1  0  0  0  0
 14 15  1  0  0  0  0
 14 46  1  0  0  0  0
 15 16  1  0  0  0  0
 15 24  2  0  0  0  0
 16 17  2  0  0  0  0
 16 47  1  0  0  0  0
 17 18  1  0  0  0  0
 18 19  2  0  0  0  0
 18 48  1  0  0  0  0
 19 20  1  0  0  0  0
 19 24  1  0  0  0  0
 20 21  2  0  0  0  0
 20 49  1  0  0  0  0
 21 22  1  0  0  0  0
 21 50  1  0  0  0  0
 22 23  2  0  0  0  0
 22 51  1  0  0  0  0
 23 24  1  0  0  0  0
 23 52  1  0  0  0  0
 25 26  1  0  0  0  0
 25 31  2  0  0  0  0
 26 27  2  0  0  0  0
 26 53  1  0  0  0  0
 27 28  1  0  0  0  0
 27 29  1  0  0  0  0
 29 30  2  0  0  0  0
 29 54  1  0  0  0  0
 30 31  1  0  0  0  0
 30 55  1  0  0  0  0
 31 32  1  0  0  0  0
 32 56  1  0  0  0  0
 32 57  1  0  0  0  0
M  END
$$$$
