
 OpenBabel07202414123D

 54 57  0  0  1  0  0  0  0  0999 V2000
    1.4313   -1.3138    0.3307 C   0  0  0  0  0  0  0  0  0  0  0  0
    2.8416   -0.7250    0.2816 C   0  0  0  0  0  0  0  0  0  0  0  0
    3.6314   -1.1242    1.5166 C   0  0  0  0  0  0  0  0  0  0  0  0
    3.4948   -1.2169   -0.9728 N   0  0  0  0  0  0  0  0  0  0  0  0
    4.9712   -0.5153   -1.3404 S   0  0  0  0  0  0  0  0  0  0  0  0
    4.7502    0.9079   -1.4252 O   0  0  0  0  0  0  0  0  0  0  0  0
    6.0021   -1.0896   -0.5132 O   0  0  0  0  0  0  0  0  0  0  0  0
    5.1906   -1.0851   -2.9368 N   0  0  0  0  0  0  0  0  0  0  0  0
    5.4137   -2.5702   -3.0398 C   0  0  0  0  0  0  0  0  0  0  0  0
    5.5188   -3.0120   -4.5111 C   0  0  3  0  0  0  0  0  0  0  0  0
    4.1628   -3.0951   -5.2344 C   0  0  0  0  0  0  0  0  0  0  0  0
    3.9726   -3.9773   -6.0650 O   0  0  0  0  0  0  0  0  0  0  0  0
    3.2591   -2.1073   -4.9059 N   0  0  0  0  0  0  0  0  0  0  0  0
    1.9689   -1.8730   -5.4656 C   0  0  0  0  0  0  0  0  0  0  0  0
    1.4684   -2.5951   -6.5494 C   0  0  0  0  0  0  0  0  0  0  0  0
    0.3153   -2.3026   -7.2002 N   0  0  0  0  0  0  0  0  0  0  0  0
   -0.4214   -1.2889   -6.7036 C   0  0  0  0  0  0  0  0  0  0  0  0
   -0.1133   -0.5894   -5.5409 C   0  0  0  0  0  0  0  0  0  0  0  0
   -1.0133    0.3447   -4.9897 C   0  0  0  0  0  0  0  0  0  0  0  0
   -0.7202    0.9993   -3.7962 C   0  0  0  0  0  0  0  0  0  0  0  0
    0.5102    0.7949   -3.1935 C   0  0  0  0  0  0  0  0  0  0  0  0
    1.4318   -0.0779   -3.7788 C   0  0  0  0  0  0  0  0  0  0  0  0
    1.1293   -0.8528   -4.9225 C   0  0  0  0  0  0  0  0  0  0  0  0
    6.5220   -2.1809   -5.2869 C   0  0  0  0  0  0  0  0  0  0  0  0
    7.1356   -2.6970   -6.4427 C   0  0  0  0  0  0  0  0  0  0  0  0
    8.0837   -1.9405   -7.1381 C   0  0  0  0  0  0  0  0  0  0  0  0
    8.8723   -2.6068   -8.5160 Cl  0  0  0  0  0  0  0  0  0  0  0  0
    8.4175   -0.6577   -6.7112 C   0  0  0  0  0  0  0  0  0  0  0  0
    7.8130   -0.1404   -5.5697 C   0  0  0  0  0  0  0  0  0  0  0  0
    6.8693   -0.8938   -4.8464 C   0  0  0  0  0  0  0  0  0  0  0  0
    6.3413   -0.3311   -3.5470 C   0  0  0  0  0  0  0  0  0  0  0  0
    0.9043   -0.9956    1.2361 H   0  0  0  0  0  0  0  0  0  0  0  0
    1.4559   -2.4081    0.3099 H   0  0  0  0  0  0  0  0  0  0  0  0
    0.8401   -0.9817   -0.5306 H   0  0  0  0  0  0  0  0  0  0  0  0
    2.7400    0.3669    0.2337 H   0  0  0  0  0  0  0  0  0  0  0  0
    3.8644   -2.1937    1.5100 H   0  0  0  0  0  0  0  0  0  0  0  0
    3.0710   -0.8961    2.4290 H   0  0  0  0  0  0  0  0  0  0  0  0
    4.5746   -0.5728    1.5765 H   0  0  0  0  0  0  0  0  0  0  0  0
    2.8560   -1.0391   -1.7380 H   0  0  0  0  0  0  0  0  0  0  0  0
    4.5842   -3.0994   -2.5600 H   0  0  0  0  0  0  0  0  0  0  0  0
    6.3406   -2.8320   -2.5146 H   0  0  0  0  0  0  0  0  0  0  0  0
    5.8931   -4.0468   -4.4785 H   0  0  0  0  0  0  0  0  0  0  0  0
    3.5956   -1.4273   -4.2330 H   0  0  0  0  0  0  0  0  0  0  0  0
    1.9834   -3.4506   -6.9727 H   0  0  0  0  0  0  0  0  0  0  0  0
   -1.3088   -1.0521   -7.2857 H   0  0  0  0  0  0  0  0  0  0  0  0
   -1.9689    0.5407   -5.4725 H   0  0  0  0  0  0  0  0  0  0  0  0
   -1.4422    1.6782   -3.3496 H   0  0  0  0  0  0  0  0  0  0  0  0
    0.7630    1.3195   -2.2749 H   0  0  0  0  0  0  0  0  0  0  0  0
    2.4077   -0.1322   -3.3243 H   0  0  0  0  0  0  0  0  0  0  0  0
    6.8884   -3.6951   -6.7937 H   0  0  0  0  0  0  0  0  0  0  0  0
    9.1498   -0.0683   -7.2515 H   0  0  0  0  0  0  0  0  0  0  0  0
    8.1016    0.8525   -5.2257 H   0  0  0  0  0  0  0  0  0  0  0  0
    6.0115    0.6976   -3.7311 H   0  0  0  0  0  0  0  0  0  0  0  0
    7.1836   -0.3149   -2.8422 H   0  0  0  0  0  0  0  0  0  0  0  0
  1  2  1  0  0  0  0
  1 32  1  0  0  0  0
  1 33  1  0  0  0  0
  1 34  1  0  0  0  0
  2  3  1  0  0  0  0
  2  4  1  0  0  0  0
  2 35  1  0  0  0  0
  3 36  1  0  0  0  0
  3 37  1  0  0  0  0
  3 38  1  0  0  0  0
  4  5  1  0  0  0  0
  4 39  1  0  0  0  0
  5  6  2  0  0  0  0
  5  7  2  0  0  0  0
  5  8  1  0  0  0  0
  8  9  1  0  0  0  0
  8 31  1  0  0  0  0
  9 10  1  0  0  0  0
  9 40  1  0  0  0  0
  9 41  1  0  0  0  0
 10 11  1  0  0  0  0
 10 24  1  0  0  0  0
 10 42  1  0  0  0  0
 11 12  2  0  0  0  0
 11 13  1  0  0  0  0
 13 14  1  0  0  0  0
 13 43  1  0  0  0  0
 14 15  1  0  0  0  0
 14 23  2  0  0  0  0
 15 16  2  0  0  0  0
 15 44  1  0  0  0  0
 16 17  1  0  0  0  0
 17 18  2  0  0  0  0
 17 45  1  0  0  0  0
 18 19  1  0  0  0  0
 18 23  1  0  0  0  0
 19 20  2  0  0  0  0
 19 46  1  0  0  0  0
 20 21  1  0  0  0  0
 20 47  1  0  0  0  0
 21 22  2  0  0  0  0
 21 48  1  0  0  0  0
 22 23  1  0  0  0  0
 22 49  1  0  0  0  0
 24 25  1  0  0  0  0
 24 30  2  0  0  0  0
 25 26  2  0  0  0  0
 25 50  1  0  0  0  0
 26 27  1  0  0  0  0
 26 28  1  0  0  0  0
 28 29  2  0  0  0  0
 28 51  1  0  0  0  0
 29 30  1  0  0  0  0
 29 52  1  0  0  0  0
 30 31  1  0  0  0  0
 31 53  1  0  0  0  0
 31 54  1  0  0  0  0
M  END
$$$$
