
 OpenBabel07202414203D

 38 40  0  0  0  0  0  0  0  0999 V2000
    1.3416   -0.1269    0.2429 C   0  0  0  0  0  0  0  0  0  0  0  0
    0.5598   -1.2603    0.0290 C   0  0  0  0  0  0  0  0  0  0  0  0
   -0.7997   -1.1261   -0.2570 C   0  0  0  0  0  0  0  0  0  0  0  0
   -1.3836    0.1451   -0.3334 C   0  0  0  0  0  0  0  0  0  0  0  0
   -0.6118    1.2781   -0.0134 C   0  0  0  0  0  0  0  0  0  0  0  0
    0.7542    1.1391    0.2431 C   0  0  0  0  0  0  0  0  0  0  0  0
   -1.2227    2.5778    0.0745 N   0  0  0  0  0  0  0  0  0  0  0  0
   -1.5011    3.1748    1.6373 S   0  0  0  0  0  0  0  0  0  0  0  0
   -0.2671    3.0867    2.3889 O   0  0  0  0  0  0  0  0  0  0  0  0
   -2.1840    4.4452    1.4956 O   0  0  0  0  0  0  0  0  0  0  0  0
   -2.6017    2.1468    2.4717 C   0  0  0  0  0  0  0  0  0  0  0  0
   -2.1843    1.1975    3.4623 C   0  0  0  0  0  0  0  0  0  0  0  0
   -3.2457    0.4570    3.9129 C   0  0  0  0  0  0  0  0  0  0  0  0
   -4.7222    0.9031    3.2191 S   0  0  0  0  0  0  0  0  0  0  0  0
   -3.9588    2.0901    2.2663 C   0  0  0  0  0  0  0  0  0  0  0  0
   -4.9454    3.0074    1.1975 Cl  0  0  0  0  0  0  0  0  0  0  0  0
   -3.1889   -0.8237    5.0538 Cl  0  0  0  0  0  0  0  0  0  0  0  0
   -3.0516    0.2550   -0.9825 S   0  0  0  0  0  0  0  0  0  0  0  0
   -2.7054    1.3143   -2.4405 C   0  0  0  0  0  0  0  0  0  0  0  0
   -3.8973    1.5271   -3.3357 C   0  0  0  0  0  0  0  0  0  0  0  0
   -5.0948    2.0536   -2.8301 C   0  0  0  0  0  0  0  0  0  0  0  0
   -6.1713    2.3225   -3.6790 C   0  0  0  0  0  0  0  0  0  0  0  0
   -6.0586    2.0812   -5.0468 C   0  0  0  0  0  0  0  0  0  0  0  0
   -4.8694    1.5741   -5.5663 C   0  0  0  0  0  0  0  0  0  0  0  0
   -3.7990    1.3021   -4.7151 C   0  0  0  0  0  0  0  0  0  0  0  0
   -2.6389    0.8503   -5.2216 F   0  0  0  0  0  0  0  0  0  0  0  0
   -4.7309    1.3187   -7.2637 Cl  0  0  0  0  0  0  0  0  0  0  0  0
    2.4098   -0.2298    0.4213 H   0  0  0  0  0  0  0  0  0  0  0  0
    1.0138   -2.2486    0.0579 H   0  0  0  0  0  0  0  0  0  0  0  0
   -1.3886   -2.0201   -0.4544 H   0  0  0  0  0  0  0  0  0  0  0  0
    1.3729    2.0087    0.4505 H   0  0  0  0  0  0  0  0  0  0  0  0
   -0.7362    3.2978   -0.4591 H   0  0  0  0  0  0  0  0  0  0  0  0
   -1.1632    1.0599    3.7998 H   0  0  0  0  0  0  0  0  0  0  0  0
   -1.8771    0.8625   -2.9981 H   0  0  0  0  0  0  0  0  0  0  0  0
   -2.3736    2.3053   -2.1180 H   0  0  0  0  0  0  0  0  0  0  0  0
   -5.1951    2.2706   -1.7682 H   0  0  0  0  0  0  0  0  0  0  0  0
   -7.0931    2.7285   -3.2679 H   0  0  0  0  0  0  0  0  0  0  0  0
   -6.8983    2.3013   -5.7022 H   0  0  0  0  0  0  0  0  0  0  0  0
  1  2  1  0  0  0  0
  1  6  2  0  0  0  0
  1 28  1  0  0  0  0
  2  3  2  0  0  0  0
  2 29  1  0  0  0  0
  3  4  1  0  0  0  0
  3 30  1  0  0  0  0
  4  5  2  0  0  0  0
  4 18  1  0  0  0  0
  5  6  1  0  0  0  0
  5  7  1  0  0  0  0
  6 31  1  0  0  0  0
  7  8  1  0  0  0  0
  7 32  1  0  0  0  0
  8  9  2  0  0  0  0
  8 10  2  0  0  0  0
  8 11  1  0  0  0  0
 11 12  1  0  0  0  0
 11 15  2  0  0  0  0
 12 13  2  0  0  0  0
 12 33  1  0  0  0  0
 13 14  1  0  0  0  0
 13 17  1  0  0  0  0
 14 15  1  0  0  0  0
 15 16  1  0  0  0  0
 18 19  1  0  0  0  0
 19 20  1  0  0  0  0
 19 34  1  0  0  0  0
 19 35  1  0  0  0  0
 20 21  1  0  0  0  0
 20 25  2  0  0  0  0
 21 22  2  0  0  0  0
 21 36  1  0  0  0  0
 22 23  1  0  0  0  0
 22 37  1  0  0  0  0
 23 24  2  0  0  0  0
 23 38  1  0  0  0  0
 24 25  1  0  0  0  0
 24 27  1  0  0  0  0
 25 26  1  0  0  0  0
M  END
$$$$
