
 OpenBabel07202414173D

 80 86  0  0  1  0  0  0  0  0999 V2000
    0.8662    0.3149    0.0225 Cl  0  0  0  0  0  0  0  0  0  0  0  0
    2.5813    0.1982    0.0926 C   0  0  0  0  0  0  0  0  0  0  0  0
    3.3513    1.3514    0.1173 C   0  0  0  0  0  0  0  0  0  0  0  0
    4.7382    1.2398    0.1624 C   0  0  0  0  0  0  0  0  0  0  0  0
    5.3615   -0.0213    0.1984 C   0  0  0  0  0  0  0  0  0  0  0  0
    4.5873   -1.2047    0.1712 C   0  0  0  0  0  0  0  0  0  0  0  0
    3.1860   -1.0612    0.1152 C   0  0  0  0  0  0  0  0  0  0  0  0
    5.2645   -2.5929    0.2126 C   0  0  3  0  0  0  0  0  0  0  0  0
    6.7882   -2.4917    0.0753 C   0  0  0  0  0  0  0  0  0  0  0  0
    7.4050   -1.3233    0.7444 N   0  0  0  0  0  0  0  0  0  0  0  0
    7.7581   -1.3209    2.3879 S   0  0  0  0  0  0  0  0  0  0  0  0
    8.5976   -0.1628    2.6330 O   0  0  0  0  0  0  0  0  0  0  0  0
    6.5189   -1.4314    3.1161 O   0  0  0  0  0  0  0  0  0  0  0  0
    8.7627   -2.8033    2.6137 C   0  0  0  0  0  0  0  0  0  0  0  0
   10.1143   -2.5183    1.9915 C   0  0  0  0  0  0  0  0  0  0  0  0
   10.1492   -2.3768    0.5501 C   0  0  0  0  0  0  0  0  0  0  0  0
   10.1823   -2.2978   -0.6074 N   0  0  0  0  0  0  0  0  0  0  0  0
   11.1385   -1.7474    2.8097 C   0  0  0  0  0  0  0  0  0  0  0  0
   11.3304   -3.2167    2.5931 C   0  0  0  0  0  0  0  0  0  0  0  0
    6.8705   -0.0585    0.2171 C   0  0  0  0  0  0  0  0  0  0  0  0
    4.7418   -3.5214   -0.9166 C   0  0  0  0  0  0  0  0  0  0  0  0
    3.7979   -4.5048   -0.2370 C   0  0  0  0  0  0  0  0  0  0  0  0
    3.5870   -3.9833    1.0874 N   0  0  0  0  0  0  0  0  0  0  0  0
    2.6248   -4.5145    2.0063 C   0  0  0  0  0  0  0  0  0  0  0  0
    2.8806   -4.5494    3.3798 C   0  0  0  0  0  0  0  0  0  0  0  0
    2.1146   -5.1951    4.2934 N   0  0  0  0  0  0  0  0  0  0  0  0
    0.9936   -5.7861    3.8347 C   0  0  0  0  0  0  0  0  0  0  0  0
    0.5351   -5.6868    2.5238 C   0  0  0  0  0  0  0  0  0  0  0  0
   -0.7139   -6.2162    2.1356 C   0  0  0  0  0  0  0  0  0  0  0  0
   -1.1487   -6.1244    0.8123 C   0  0  0  0  0  0  0  0  0  0  0  0
   -0.3586   -5.4720   -0.1182 C   0  0  0  0  0  0  0  0  0  0  0  0
   -0.7482   -5.4924   -1.4305 O   0  0  0  0  0  0  0  0  0  0  0  0
    0.3504   -5.6575   -2.3533 C   0  0  0  0  0  0  0  0  0  0  0  0
   -0.1559   -6.4086   -3.5808 C   0  0  0  0  0  0  0  0  0  0  0  0
    0.9402   -6.6373   -4.6319 C   0  0  0  0  0  0  0  0  0  0  0  0
    0.4206   -7.3504   -5.8034 N   0  0  0  0  0  0  0  0  0  0  0  0
   -0.0517   -8.7087   -5.5079 C   0  0  0  0  0  0  0  0  0  0  0  0
    0.2168   -9.5326   -6.7619 C   0  0  0  0  0  0  0  0  0  0  0  0
    0.7832   -8.5460   -7.7657 C   0  0  0  0  0  0  0  0  0  0  0  0
    1.3937   -7.4662   -6.8908 C   0  0  0  0  0  0  0  0  0  0  0  0
    0.7919   -4.8156    0.3089 C   0  0  0  0  0  0  0  0  0  0  0  0
    1.3499   -5.0038    1.5920 C   0  0  0  0  0  0  0  0  0  0  0  0
    4.8361   -3.4286    1.4323 C   0  0  0  0  0  0  0  0  0  0  0  0
    5.5258   -3.7304    2.3941 O   0  0  0  0  0  0  0  0  0  0  0  0
    2.8853    2.3330    0.1011 H   0  0  0  0  0  0  0  0  0  0  0  0
    5.3367    2.1479    0.1827 H   0  0  0  0  0  0  0  0  0  0  0  0
    2.5317   -1.9271    0.0936 H   0  0  0  0  0  0  0  0  0  0  0  0
    7.0364   -2.3729   -0.9921 H   0  0  0  0  0  0  0  0  0  0  0  0
    7.2836   -3.4235    0.3582 H   0  0  0  0  0  0  0  0  0  0  0  0
    8.2675   -3.6733    2.1786 H   0  0  0  0  0  0  0  0  0  0  0  0
    8.8345   -2.9728    3.6946 H   0  0  0  0  0  0  0  0  0  0  0  0
   10.8598   -1.4072    3.8026 H   0  0  0  0  0  0  0  0  0  0  0  0
   11.7823   -1.0458    2.2883 H   0  0  0  0  0  0  0  0  0  0  0  0
   11.1884   -3.8764    3.4400 H   0  0  0  0  0  0  0  0  0  0  0  0
   12.1364   -3.5216    1.9325 H   0  0  0  0  0  0  0  0  0  0  0  0
    7.2376    0.0686   -0.8095 H   0  0  0  0  0  0  0  0  0  0  0  0
    7.2629    0.7939    0.7826 H   0  0  0  0  0  0  0  0  0  0  0  0
    5.5430   -4.0929   -1.4018 H   0  0  0  0  0  0  0  0  0  0  0  0
    4.2299   -2.9645   -1.7103 H   0  0  0  0  0  0  0  0  0  0  0  0
    4.2953   -5.4780   -0.1223 H   0  0  0  0  0  0  0  0  0  0  0  0
    2.9326   -4.6641   -0.8649 H   0  0  0  0  0  0  0  0  0  0  0  0
    3.7454   -4.0630    3.8227 H   0  0  0  0  0  0  0  0  0  0  0  0
    0.4435   -6.3467    4.5867 H   0  0  0  0  0  0  0  0  0  0  0  0
   -1.3561   -6.7043    2.8663 H   0  0  0  0  0  0  0  0  0  0  0  0
   -2.1004   -6.5555    0.5148 H   0  0  0  0  0  0  0  0  0  0  0  0
    1.1700   -6.2361   -1.9039 H   0  0  0  0  0  0  0  0  0  0  0  0
    0.7252   -4.6674   -2.6386 H   0  0  0  0  0  0  0  0  0  0  0  0
   -0.9913   -5.8532   -4.0226 H   0  0  0  0  0  0  0  0  0  0  0  0
   -0.5696   -7.3656   -3.2413 H   0  0  0  0  0  0  0  0  0  0  0  0
    1.7842   -7.1832   -4.1890 H   0  0  0  0  0  0  0  0  0  0  0  0
    1.3266   -5.6606   -4.9505 H   0  0  0  0  0  0  0  0  0  0  0  0
   -1.1234   -8.6880   -5.2829 H   0  0  0  0  0  0  0  0  0  0  0  0
    0.4683   -9.1638   -4.6565 H   0  0  0  0  0  0  0  0  0  0  0  0
   -0.6856  -10.0226   -7.1403 H   0  0  0  0  0  0  0  0  0  0  0  0
    0.9584  -10.3101   -6.5428 H   0  0  0  0  0  0  0  0  0  0  0  0
   -0.0259   -8.1340   -8.3813 H   0  0  0  0  0  0  0  0  0  0  0  0
    1.5147   -9.0117   -8.4330 H   0  0  0  0  0  0  0  0  0  0  0  0
    1.5049   -6.5265   -7.4411 H   0  0  0  0  0  0  0  0  0  0  0  0
    2.3786   -7.7862   -6.5294 H   0  0  0  0  0  0  0  0  0  0  0  0
    1.2279   -4.1024   -0.3782 H   0  0  0  0  0  0  0  0  0  0  0  0
  1  2  1  0  0  0  0
  2  3  1  0  0  0  0
  2  7  2  0  0  0  0
  3  4  2  0  0  0  0
  3 45  1  0  0  0  0
  4  5  1  0  0  0  0
  4 46  1  0  0  0  0
  5  6  2  0  0  0  0
  5 20  1  0  0  0  0
  6  7  1  0  0  0  0
  6  8  1  0  0  0  0
  7 47  1  0  0  0  0
  8  9  1  0  0  0  0
  8 21  1  0  0  0  0
  8 43  1  0  0  0  0
  9 10  1  0  0  0  0
  9 48  1  0  0  0  0
  9 49  1  0  0  0  0
 10 11  1  0  0  0  0
 10 20  1  0  0  0  0
 11 12  2  0  0  0  0
 11 13  2  0  0  0  0
 11 14  1  0  0  0  0
 14 15  1  0  0  0  0
 14 50  1  0  0  0  0
 14 51  1  0  0  0  0
 15 16  1  0  0  0  0
 15 18  1  0  0  0  0
 15 19  1  0  0  0  0
 16 17  3  0  0  0  0
 18 19  1  0  0  0  0
 18 52  1  0  0  0  0
 18 53  1  0  0  0  0
 19 54  1  0  0  0  0
 19 55  1  0  0  0  0
 20 56  1  0  0  0  0
 20 57  1  0  0  0  0
 21 22  1  0  0  0  0
 21 58  1  0  0  0  0
 21 59  1  0  0  0  0
 22 23  1  0  0  0  0
 22 60  1  0  0  0  0
 22 61  1  0  0  0  0
 23 24  1  0  0  0  0
 23 43  1  0  0  0  0
 24 25  1  0  0  0  0
 24 42  2  0  0  0  0
 25 26  2  0  0  0  0
 25 62  1  0  0  0  0
 26 27  1  0  0  0  0
 27 28  2  0  0  0  0
 27 63  1  0  0  0  0
 28 29  1  0  0  0  0
 28 42  1  0  0  0  0
 29 30  2  0  0  0  0
 29 64  1  0  0  0  0
 30 31  1  0  0  0  0
 30 65  1  0  0  0  0
 31 32  1  0  0  0  0
 31 41  2  0  0  0  0
 32 33  1  0  0  0  0
 33 34  1  0  0  0  0
 33 66  1  0  0  0  0
 33 67  1  0  0  0  0
 34 35  1  0  0  0  0
 34 68  1  0  0  0  0
 34 69  1  0  0  0  0
 35 36  1  0  0  0  0
 35 70  1  0  0  0  0
 35 71  1  0  0  0  0
 36 37  1  0  0  0  0
 36 40  1  0  0  0  0
 37 38  1  0  0  0  0
 37 72  1  0  0  0  0
 37 73  1  0  0  0  0
 38 39  1  0  0  0  0
 38 74  1  0  0  0  0
 38 75  1  0  0  0  0
 39 40  1  0  0  0  0
 39 76  1  0  0  0  0
 39 77  1  0  0  0  0
 40 78  1  0  0  0  0
 40 79  1  0  0  0  0
 41 42  1  0  0  0  0
 41 80  1  0  0  0  0
 43 44  2  0  0  0  0
M  END
$$$$
