
 OpenBabel07202414183D

 44 47  0  0  1  0  0  0  0  0999 V2000
    7.7704    2.0909    1.5045 Cl  0  0  0  0  0  0  0  0  0  0  0  0
    7.8872    0.5461    0.7579 C   0  0  0  0  0  0  0  0  0  0  0  0
    9.0875    0.1516    0.1714 C   0  0  0  0  0  0  0  0  0  0  0  0
    9.1803   -1.0985   -0.4396 C   0  0  0  0  0  0  0  0  0  0  0  0
    8.0680   -1.9511   -0.4583 C   0  0  0  0  0  0  0  0  0  0  0  0
    6.8575   -1.5798    0.1500 C   0  0  0  0  0  0  0  0  0  0  0  0
    6.7811   -0.3072    0.7504 C   0  0  0  0  0  0  0  0  0  0  0  0
    5.6458   -2.4943    0.2214 C   0  0  2  0  0  0  0  0  0  0  0  0
    5.4080   -2.9935    1.6543 C   0  0  0  0  0  0  0  0  0  0  0  0
    4.6979   -2.3255    2.4047 O   0  0  0  0  0  0  0  0  0  0  0  0
    6.0984   -4.1367    2.0186 N   0  0  0  0  0  0  0  0  0  0  0  0
    6.0109   -4.7906    3.2763 C   0  0  0  0  0  0  0  0  0  0  0  0
    4.9778   -4.5289    4.1811 C   0  0  0  0  0  0  0  0  0  0  0  0
    4.8355   -5.1127    5.3942 N   0  0  0  0  0  0  0  0  0  0  0  0
    5.7746   -6.0079    5.7381 C   0  0  0  0  0  0  0  0  0  0  0  0
    6.8378   -6.3785    4.9186 C   0  0  0  0  0  0  0  0  0  0  0  0
    6.9718   -5.7520    3.6579 C   0  0  0  0  0  0  0  0  0  0  0  0
    8.1241   -6.1404    2.7544 C   0  0  0  0  0  0  0  0  0  0  0  0
    9.2723   -6.8383    3.4870 C   0  0  0  0  0  0  0  0  0  0  0  0
    8.7384   -7.9526    4.3742 C   0  0  0  0  0  0  0  0  0  0  0  0
    7.8423   -7.3637    5.4560 C   0  0  0  0  0  0  0  0  0  0  0  0
    5.6442   -3.6310   -0.8003 C   0  0  0  0  0  0  0  0  0  0  0  0
    6.9145   -4.3993   -0.7132 N   0  0  0  0  0  0  0  0  0  0  0  0
    8.2567   -3.5115   -1.2740 S   0  0  0  0  0  0  0  0  0  0  0  0
    9.4220   -4.1791   -0.7384 O   0  0  0  0  0  0  0  0  0  0  0  0
    8.0413   -3.3018   -2.6843 O   0  0  0  0  0  0  0  0  0  0  0  0
    9.9513    0.8111    0.1892 H   0  0  0  0  0  0  0  0  0  0  0  0
   10.1196   -1.4042   -0.8995 H   0  0  0  0  0  0  0  0  0  0  0  0
    5.8582    0.0175    1.2308 H   0  0  0  0  0  0  0  0  0  0  0  0
    4.7607   -1.8873   -0.0221 H   0  0  0  0  0  0  0  0  0  0  0  0
    6.7808   -4.4924    1.3528 H   0  0  0  0  0  0  0  0  0  0  0  0
    4.1740   -3.8349    3.9579 H   0  0  0  0  0  0  0  0  0  0  0  0
    5.6506   -6.4331    6.7306 H   0  0  0  0  0  0  0  0  0  0  0  0
    8.5408   -5.2531    2.2645 H   0  0  0  0  0  0  0  0  0  0  0  0
    7.7371   -6.8069    1.9729 H   0  0  0  0  0  0  0  0  0  0  0  0
    9.8167   -6.1097    4.1017 H   0  0  0  0  0  0  0  0  0  0  0  0
    9.9861   -7.2422    2.7607 H   0  0  0  0  0  0  0  0  0  0  0  0
    9.5653   -8.5006    4.8395 H   0  0  0  0  0  0  0  0  0  0  0  0
    8.1737   -8.6723    3.7683 H   0  0  0  0  0  0  0  0  0  0  0  0
    8.4629   -6.8429    6.1966 H   0  0  0  0  0  0  0  0  0  0  0  0
    7.3276   -8.1812    5.9755 H   0  0  0  0  0  0  0  0  0  0  0  0
    5.5158   -3.2474   -1.8197 H   0  0  0  0  0  0  0  0  0  0  0  0
    4.8131   -4.3214   -0.6185 H   0  0  0  0  0  0  0  0  0  0  0  0
    6.8652   -5.2435   -1.2934 H   0  0  0  0  0  0  0  0  0  0  0  0
  1  2  1  0  0  0  0
  2  3  1  0  0  0  0
  2  7  2  0  0  0  0
  3  4  2  0  0  0  0
  3 27  1  0  0  0  0
  4  5  1  0  0  0  0
  4 28  1  0  0  0  0
  5  6  2  0  0  0  0
  5 24  1  0  0  0  0
  6  7  1  0  0  0  0
  6  8  1  0  0  0  0
  7 29  1  0  0  0  0
  8  9  1  0  0  0  0
  8 22  1  0  0  0  0
  8 30  1  6  0  0  0
  9 10  2  0  0  0  0
  9 11  1  0  0  0  0
 11 12  1  0  0  0  0
 11 31  1  0  0  0  0
 12 13  1  0  0  0  0
 12 17  2  0  0  0  0
 13 14  2  0  0  0  0
 13 32  1  0  0  0  0
 14 15  1  0  0  0  0
 15 16  2  0  0  0  0
 15 33  1  0  0  0  0
 16 17  1  0  0  0  0
 16 21  1  0  0  0  0
 17 18  1  0  0  0  0
 18 19  1  0  0  0  0
 18 34  1  0  0  0  0
 18 35  1  0  0  0  0
 19 20  1  0  0  0  0
 19 36  1  0  0  0  0
 19 37  1  0  0  0  0
 20 21  1  0  0  0  0
 20 38  1  0  0  0  0
 20 39  1  0  0  0  0
 21 40  1  0  0  0  0
 21 41  1  0  0  0  0
 22 23  1  0  0  0  0
 22 42  1  0  0  0  0
 22 43  1  0  0  0  0
 23 24  1  0  0  0  0
 23 44  1  0  0  0  0
 24 25  2  0  0  0  0
 24 26  2  0  0  0  0
M  END
$$$$
