
 OpenBabel07202414203D

 48 51  0  0  0  0  0  0  0  0999 V2000
    7.0876    7.9589   -1.5112 O   0  5  0  0  0  0  0  0  0  0  0  0
    6.3560    6.9662   -1.6332 N   0  3  0  0  0  0  0  0  0  0  0  0
    5.7799    6.6397   -2.6805 O   0  0  0  0  0  0  0  0  0  0  0  0
    6.1345    6.1347   -0.4457 C   0  0  0  0  0  0  0  0  0  0  0  0
    6.7778    6.4598    0.7529 C   0  0  0  0  0  0  0  0  0  0  0  0
    6.5449    5.6815    1.8927 C   0  0  0  0  0  0  0  0  0  0  0  0
    7.4701    6.0809    3.3009 Cl  0  0  0  0  0  0  0  0  0  0  0  0
    5.6347    4.6063    1.8609 C   0  0  0  0  0  0  0  0  0  0  0  0
    5.3057    3.7923    2.9672 N   0  0  0  0  0  0  0  0  0  0  0  0
    4.9555    4.1825    4.2764 C   0  0  0  0  0  0  0  0  0  0  0  0
    5.0981    3.2739    5.3309 C   0  0  0  0  0  0  0  0  0  0  0  0
    4.7448    3.6418    6.6285 C   0  0  0  0  0  0  0  0  0  0  0  0
    4.9442    2.5165    7.9165 Cl  0  0  0  0  0  0  0  0  0  0  0  0
    4.2485    4.9169    6.8986 C   0  0  0  0  0  0  0  0  0  0  0  0
    4.0858    5.8424    5.8618 C   0  0  0  0  0  0  0  0  0  0  0  0
    3.6330    7.2509    6.1628 C   0  0  0  0  0  0  0  0  0  0  0  0
    2.3181    7.6423    5.5182 C   0  0  0  0  0  0  0  0  0  0  0  0
    1.2480    7.1606    5.8827 O   0  0  0  0  0  0  0  0  0  0  0  0
    2.4584    8.5556    4.4836 N   0  0  0  0  0  0  0  0  0  0  0  0
    1.3568    9.0824    3.7659 C   0  0  0  0  0  0  0  0  0  0  0  0
    0.1863    9.4670    4.4231 C   0  0  0  0  0  0  0  0  0  0  0  0
   -0.8898   10.0126    3.8128 N   0  0  0  0  0  0  0  0  0  0  0  0
   -0.8129   10.1410    2.4715 C   0  0  0  0  0  0  0  0  0  0  0  0
    0.2887    9.7726    1.6977 C   0  0  0  0  0  0  0  0  0  0  0  0
    0.2750    9.8880    0.2973 C   0  0  0  0  0  0  0  0  0  0  0  0
    1.3684    9.4783   -0.4634 C   0  0  0  0  0  0  0  0  0  0  0  0
    2.4924    8.9599    0.1659 C   0  0  0  0  0  0  0  0  0  0  0  0
    2.5236    8.8462    1.5572 C   0  0  0  0  0  0  0  0  0  0  0  0
    1.4239    9.2431    2.3583 C   0  0  0  0  0  0  0  0  0  0  0  0
    4.4178    5.4518    4.5547 C   0  0  0  0  0  0  0  0  0  0  0  0
    5.0496    4.2662    0.6284 C   0  0  0  0  0  0  0  0  0  0  0  0
    5.2844    5.0283   -0.5193 C   0  0  0  0  0  0  0  0  0  0  0  0
    7.4654    7.3018    0.8088 H   0  0  0  0  0  0  0  0  0  0  0  0
    5.7140    2.8638    2.9047 H   0  0  0  0  0  0  0  0  0  0  0  0
    5.4959    2.2789    5.1506 H   0  0  0  0  0  0  0  0  0  0  0  0
    3.9934    5.1867    7.9206 H   0  0  0  0  0  0  0  0  0  0  0  0
    4.4307    7.9480    5.8697 H   0  0  0  0  0  0  0  0  0  0  0  0
    3.4990    7.3910    7.2440 H   0  0  0  0  0  0  0  0  0  0  0  0
    3.3684    8.6204    4.0502 H   0  0  0  0  0  0  0  0  0  0  0  0
    0.0883    9.3825    5.5022 H   0  0  0  0  0  0  0  0  0  0  0  0
   -1.7084   10.5542    2.0128 H   0  0  0  0  0  0  0  0  0  0  0  0
   -0.6024   10.2808   -0.2133 H   0  0  0  0  0  0  0  0  0  0  0  0
    1.3371    9.5542   -1.5474 H   0  0  0  0  0  0  0  0  0  0  0  0
    3.3413    8.6288   -0.4272 H   0  0  0  0  0  0  0  0  0  0  0  0
    3.4112    8.4064    2.0005 H   0  0  0  0  0  0  0  0  0  0  0  0
    4.2710    6.1524    3.7375 H   0  0  0  0  0  0  0  0  0  0  0  0
    4.3711    3.4157    0.5696 H   0  0  0  0  0  0  0  0  0  0  0  0
    4.7902    4.7505   -1.4489 H   0  0  0  0  0  0  0  0  0  0  0  0
  1  2  1  0  0  0  0
  2  3  2  0  0  0  0
  2  4  1  0  0  0  0
  4  5  2  0  0  0  0
  4 32  1  0  0  0  0
  5  6  1  0  0  0  0
  5 33  1  0  0  0  0
  6  7  1  0  0  0  0
  6  8  2  0  0  0  0
  8  9  1  0  0  0  0
  8 31  1  0  0  0  0
  9 10  1  0  0  0  0
  9 34  1  0  0  0  0
 10 11  2  0  0  0  0
 10 30  1  0  0  0  0
 11 12  1  0  0  0  0
 11 35  1  0  0  0  0
 12 13  1  0  0  0  0
 12 14  2  0  0  0  0
 14 15  1  0  0  0  0
 14 36  1  0  0  0  0
 15 16  1  0  0  0  0
 15 30  2  0  0  0  0
 16 17  1  0  0  0  0
 16 37  1  0  0  0  0
 16 38  1  0  0  0  0
 17 18  2  0  0  0  0
 17 19  1  0  0  0  0
 19 20  1  0  0  0  0
 19 39  1  0  0  0  0
 20 21  2  0  0  0  0
 20 29  1  0  0  0  0
 21 22  1  0  0  0  0
 21 40  1  0  0  0  0
 22 23  2  0  0  0  0
 23 24  1  0  0  0  0
 23 41  1  0  0  0  0
 24 25  2  0  0  0  0
 24 29  1  0  0  0  0
 25 26  1  0  0  0  0
 25 42  1  0  0  0  0
 26 27  2  0  0  0  0
 26 43  1  0  0  0  0
 27 28  1  0  0  0  0
 27 44  1  0  0  0  0
 28 29  2  0  0  0  0
 28 45  1  0  0  0  0
 30 46  1  0  0  0  0
 31 32  2  0  0  0  0
 31 47  1  0  0  0  0
 32 48  1  0  0  0  0
M  CHG  2   1  -1   2   1
M  END
$$$$
