
 OpenBabel07202414173D

 46 49  0  0  1  0  0  0  0  0999 V2000
    1.2746    1.8514   -0.2161 Cl  0  0  0  0  0  0  0  0  0  0  0  0
   -0.1302    0.8471   -0.1554 C   0  0  0  0  0  0  0  0  0  0  0  0
   -1.3138    1.3483   -0.6959 C   0  0  0  0  0  0  0  0  0  0  0  0
   -2.4989    0.6060   -0.6129 C   0  0  0  0  0  0  0  0  0  0  0  0
   -2.5395   -0.6368    0.0477 C   0  0  0  0  0  0  0  0  0  0  0  0
   -3.8662   -1.3965    0.2661 C   0  0  3  0  0  0  0  0  0  0  0  0
   -3.7835   -2.2638    1.4810 N   0  0  0  0  0  0  0  0  0  0  0  0
   -4.9674   -3.0771    1.7103 C   0  0  0  0  0  0  0  0  0  0  0  0
   -4.8133   -3.9284    2.9259 C   0  0  0  0  0  0  0  0  0  0  0  0
   -6.0068   -4.7292    3.3883 C   0  0  0  0  0  0  0  0  0  0  0  0
   -5.5253   -3.5671    4.2083 C   0  0  0  0  0  0  0  0  0  0  0  0
   -5.0767   -0.4200    0.4428 C   0  0  0  0  0  0  0  0  0  0  0  0
   -4.9677    0.6587    1.0265 O   0  0  0  0  0  0  0  0  0  0  0  0
   -6.2967   -0.9182   -0.0353 N   0  0  0  0  0  0  0  0  0  0  0  0
   -7.4808   -0.1837    0.2349 C   0  0  0  0  0  0  0  0  0  0  0  0
   -8.4524   -0.7154    1.0823 C   0  0  0  0  0  0  0  0  0  0  0  0
   -9.5677   -0.0564    1.4643 N   0  0  0  0  0  0  0  0  0  0  0  0
   -9.7213    1.1950    0.9697 C   0  0  0  0  0  0  0  0  0  0  0  0
   -8.8433    1.8120    0.0744 C   0  0  0  0  0  0  0  0  0  0  0  0
   -9.0691    3.1039   -0.4420 C   0  0  0  0  0  0  0  0  0  0  0  0
   -8.1889    3.6679   -1.3655 C   0  0  0  0  0  0  0  0  0  0  0  0
   -7.0776    2.9497   -1.7873 C   0  0  0  0  0  0  0  0  0  0  0  0
   -6.8342    1.6794   -1.2724 C   0  0  0  0  0  0  0  0  0  0  0  0
   -7.6934    1.0953   -0.3177 C   0  0  0  0  0  0  0  0  0  0  0  0
   -1.3142   -1.1635    0.5033 C   0  0  0  0  0  0  0  0  0  0  0  0
   -0.1247   -0.4247    0.4220 C   0  0  0  0  0  0  0  0  0  0  0  0
    1.3082   -1.1310    1.0833 Cl  0  0  0  0  0  0  0  0  0  0  0  0
   -1.3322    2.3332   -1.1581 H   0  0  0  0  0  0  0  0  0  0  0  0
   -3.4012    1.0529   -1.0278 H   0  0  0  0  0  0  0  0  0  0  0  0
   -4.0293   -2.0172   -0.6239 H   0  0  0  0  0  0  0  0  0  0  0  0
   -3.6388   -1.6482    2.2861 H   0  0  0  0  0  0  0  0  0  0  0  0
   -5.1600   -3.7206    0.8449 H   0  0  0  0  0  0  0  0  0  0  0  0
   -5.8422   -2.4459    1.8792 H   0  0  0  0  0  0  0  0  0  0  0  0
   -3.8457   -4.4136    2.9842 H   0  0  0  0  0  0  0  0  0  0  0  0
   -5.8304   -5.7302    3.7659 H   0  0  0  0  0  0  0  0  0  0  0  0
   -6.9481   -4.6209    2.8600 H   0  0  0  0  0  0  0  0  0  0  0  0
   -5.0324   -3.7841    5.1492 H   0  0  0  0  0  0  0  0  0  0  0  0
   -6.1476   -2.6785    4.2368 H   0  0  0  0  0  0  0  0  0  0  0  0
   -6.3864   -1.9250   -0.0055 H   0  0  0  0  0  0  0  0  0  0  0  0
   -8.3392   -1.6944    1.5388 H   0  0  0  0  0  0  0  0  0  0  0  0
  -10.6175    1.7056    1.3156 H   0  0  0  0  0  0  0  0  0  0  0  0
   -9.9422    3.6720   -0.1316 H   0  0  0  0  0  0  0  0  0  0  0  0
   -8.3752    4.6634   -1.7587 H   0  0  0  0  0  0  0  0  0  0  0  0
   -6.3904    3.3764   -2.5166 H   0  0  0  0  0  0  0  0  0  0  0  0
   -5.9631    1.1394   -1.6349 H   0  0  0  0  0  0  0  0  0  0  0  0
   -1.2879   -2.1509    0.9622 H   0  0  0  0  0  0  0  0  0  0  0  0
  1  2  1  0  0  0  0
  2  3  1  0  0  0  0
  2 26  2  0  0  0  0
  3  4  2  0  0  0  0
  3 28  1  0  0  0  0
  4  5  1  0  0  0  0
  4 29  1  0  0  0  0
  5  6  1  0  0  0  0
  5 25  2  0  0  0  0
  6  7  1  0  0  0  0
  6 12  1  0  0  0  0
  6 30  1  0  0  0  0
  7  8  1  0  0  0  0
  7 31  1  0  0  0  0
  8  9  1  0  0  0  0
  8 32  1  0  0  0  0
  8 33  1  0  0  0  0
  9 10  1  0  0  0  0
  9 11  1  0  0  0  0
  9 34  1  0  0  0  0
 10 11  1  0  0  0  0
 10 35  1  0  0  0  0
 10 36  1  0  0  0  0
 11 37  1  0  0  0  0
 11 38  1  0  0  0  0
 12 13  2  0  0  0  0
 12 14  1  0  0  0  0
 14 15  1  0  0  0  0
 14 39  1  0  0  0  0
 15 16  1  0  0  0  0
 15 24  2  0  0  0  0
 16 17  2  0  0  0  0
 16 40  1  0  0  0  0
 17 18  1  0  0  0  0
 18 19  2  0  0  0  0
 18 41  1  0  0  0  0
 19 20  1  0  0  0  0
 19 24  1  0  0  0  0
 20 21  2  0  0  0  0
 20 42  1  0  0  0  0
 21 22  1  0  0  0  0
 21 43  1  0  0  0  0
 22 23  2  0  0  0  0
 22 44  1  0  0  0  0
 23 24  1  0  0  0  0
 23 45  1  0  0  0  0
 25 26  1  0  0  0  0
 25 46  1  0  0  0  0
 26 27  1  0  0  0  0
M  END
$$$$
