
 OpenBabel07202414203D

 36 39  0  0  1  0  0  0  0  0999 V2000
    0.1816    6.6179   -7.5356 C   0  0  0  0  0  0  0  0  0  0  0  0
   -0.2026    7.2821   -6.3801 C   0  0  0  0  0  0  0  0  0  0  0  0
    0.0100    6.6947   -5.1281 C   0  0  0  0  0  0  0  0  0  0  0  0
    0.6121    5.4175   -4.9892 C   0  0  0  0  0  0  0  0  0  0  0  0
    1.0188    4.7778   -6.1843 C   0  0  0  0  0  0  0  0  0  0  0  0
    0.7974    5.3732   -7.4398 C   0  0  0  0  0  0  0  0  0  0  0  0
    1.6523    3.5391   -6.0912 C   0  0  0  0  0  0  0  0  0  0  0  0
    1.8981    2.8963   -4.9339 N   0  0  0  0  0  0  0  0  0  0  0  0
    1.4787    3.5070   -3.7991 C   0  0  0  0  0  0  0  0  0  0  0  0
    0.8294    4.7451   -3.7489 C   0  0  0  0  0  0  0  0  0  0  0  0
    0.3458    5.3209   -2.5368 N   0  0  0  0  0  0  0  0  0  0  0  0
    0.4901    4.8228   -1.2573 C   0  0  0  0  0  0  0  0  0  0  0  0
    1.1348    3.8167   -0.9651 O   0  0  0  0  0  0  0  0  0  0  0  0
   -0.3173    5.5060   -0.1694 C   0  0  2  0  0  0  0  0  0  0  0  0
   -1.7094    4.8628   -0.1120 C   0  0  0  0  0  0  0  0  0  0  0  0
   -2.7035    5.8681    0.1891 O   0  0  0  0  0  0  0  0  0  0  0  0
   -2.0697    7.0563   -0.0423 C   0  0  0  0  0  0  0  0  0  0  0  0
   -0.7104    6.9386   -0.2993 C   0  0  0  0  0  0  0  0  0  0  0  0
    0.0668    8.0769   -0.4608 C   0  0  0  0  0  0  0  0  0  0  0  0
   -0.5628    9.3257   -0.3692 C   0  0  0  0  0  0  0  0  0  0  0  0
   -1.9418    9.4306   -0.1290 C   0  0  0  0  0  0  0  0  0  0  0  0
   -2.7092    8.2789    0.0386 C   0  0  0  0  0  0  0  0  0  0  0  0
    0.3764   10.7628   -0.5021 Cl  0  0  0  0  0  0  0  0  0  0  0  0
    0.0086    7.0687   -8.5091 H   0  0  0  0  0  0  0  0  0  0  0  0
   -0.6702    8.2609   -6.4458 H   0  0  0  0  0  0  0  0  0  0  0  0
   -0.3009    7.2717   -4.2642 H   0  0  0  0  0  0  0  0  0  0  0  0
    1.1027    4.8683   -8.3542 H   0  0  0  0  0  0  0  0  0  0  0  0
    1.9931    3.0084   -6.9767 H   0  0  0  0  0  0  0  0  0  0  0  0
    1.6856    2.9164   -2.9143 H   0  0  0  0  0  0  0  0  0  0  0  0
   -0.1816    6.1766   -2.6289 H   0  0  0  0  0  0  0  0  0  0  0  0
    0.2065    5.3846    0.7871 H   0  0  0  0  0  0  0  0  0  0  0  0
   -1.7499    4.0877    0.6617 H   0  0  0  0  0  0  0  0  0  0  0  0
   -2.0007    4.3950   -1.0607 H   0  0  0  0  0  0  0  0  0  0  0  0
    1.1413    8.0125   -0.6046 H   0  0  0  0  0  0  0  0  0  0  0  0
   -2.4139   10.4065   -0.0440 H   0  0  0  0  0  0  0  0  0  0  0  0
   -3.7709    8.3356    0.2564 H   0  0  0  0  0  0  0  0  0  0  0  0
  1  2  1  0  0  0  0
  1  6  2  0  0  0  0
  1 24  1  0  0  0  0
  2  3  2  0  0  0  0
  2 25  1  0  0  0  0
  3  4  1  0  0  0  0
  3 26  1  0  0  0  0
  4  5  1  0  0  0  0
  4 10  2  0  0  0  0
  5  6  1  0  0  0  0
  5  7  2  0  0  0  0
  6 27  1  0  0  0  0
  7  8  1  0  0  0  0
  7 28  1  0  0  0  0
  8  9  2  0  0  0  0
  9 10  1  0  0  0  0
  9 29  1  0  0  0  0
 10 11  1  0  0  0  0
 11 12  1  0  0  0  0
 11 30  1  0  0  0  0
 12 13  2  0  0  0  0
 14 15  1  0  0  0  0
 14 18  1  0  0  0  0
 14 12  1  0  0  0  0
 14 31  1  1  0  0  0
 15 16  1  0  0  0  0
 15 32  1  0  0  0  0
 15 33  1  0  0  0  0
 16 17  1  0  0  0  0
 17 18  1  0  0  0  0
 17 22  2  0  0  0  0
 18 19  2  0  0  0  0
 19 20  1  0  0  0  0
 19 34  1  0  0  0  0
 20 21  2  0  0  0  0
 20 23  1  0  0  0  0
 21 22  1  0  0  0  0
 21 35  1  0  0  0  0
 22 36  1  0  0  0  0
M  END
$$$$
