
 OpenBabel07202414153D

 53 55  0  0  1  0  0  0  0  0999 V2000
   -0.6890    1.0668   -0.1588 C   0  0  0  0  0  0  0  0  0  0  0  0
    0.6929    0.7928   -0.3723 O   0  0  0  0  0  0  0  0  0  0  0  0
    1.2768    1.4274   -1.4454 C   0  0  0  0  0  0  0  0  0  0  0  0
    0.6346    2.2864   -2.3328 C   0  0  0  0  0  0  0  0  0  0  0  0
    1.3204    2.8620   -3.4033 C   0  0  0  0  0  0  0  0  0  0  0  0
    2.6932    2.6051   -3.5748 C   0  0  0  0  0  0  0  0  0  0  0  0
    3.3570    3.0994   -4.7161 N   0  0  0  0  0  0  0  0  0  0  0  0
    4.4937    3.8804   -4.6788 C   0  0  0  0  0  0  0  0  0  0  0  0
    4.9959    4.2516   -3.6151 O   0  0  0  0  0  0  0  0  0  0  0  0
    4.9666    4.5256   -6.0447 C   0  0  3  0  0  0  0  0  0  0  0  0
    4.9297    3.7349   -7.3431 N   0  0  0  0  0  0  0  0  0  0  0  0
    3.8430    3.2620   -8.0991 C   0  0  0  0  0  0  0  0  0  0  0  0
    3.9543    2.5899   -9.1162 O   0  0  0  0  0  0  0  0  0  0  0  0
    2.4428    3.5278   -7.6684 C   0  0  0  0  0  0  0  0  0  0  0  0
    1.6303    2.5217   -7.3084 C   0  0  0  0  0  0  0  0  0  0  0  0
    6.2250    3.5498   -7.9875 C   0  0  0  0  0  0  0  0  0  0  0  0
    6.4396    4.0422   -9.2868 C   0  0  0  0  0  0  0  0  0  0  0  0
    7.6150    3.7558   -9.9979 C   0  0  0  0  0  0  0  0  0  0  0  0
    8.6402    3.0046   -9.4123 C   0  0  0  0  0  0  0  0  0  0  0  0
    9.9146    2.7062  -10.1726 C   0  0  0  0  0  0  0  0  0  0  0  0
    9.9433    3.2459  -11.4260 F   0  0  0  0  0  0  0  0  0  0  0  0
   11.0193    3.1921   -9.5403 F   0  0  0  0  0  0  0  0  0  0  0  0
   10.1404    1.3728  -10.3421 F   0  0  0  0  0  0  0  0  0  0  0  0
    8.4583    2.5621   -8.0903 C   0  0  0  0  0  0  0  0  0  0  0  0
    7.2604    2.8223   -7.3879 C   0  0  0  0  0  0  0  0  0  0  0  0
    4.4267    5.9577   -6.1540 C   0  0  0  0  0  0  0  0  0  0  0  0
    5.2543    7.0910   -6.1444 C   0  0  0  0  0  0  0  0  0  0  0  0
    4.6826    8.3701   -6.1229 C   0  0  0  0  0  0  0  0  0  0  0  0
    3.3043    8.4872   -6.1460 C   0  0  0  0  0  0  0  0  0  0  0  0
    2.4785    7.4296   -6.1690 N   0  0  0  0  0  0  0  0  0  0  0  0
    3.0636    6.2163   -6.1241 C   0  0  0  0  0  0  0  0  0  0  0  0
    3.3487    1.7692   -2.6806 C   0  0  0  0  0  0  0  0  0  0  0  0
    2.6374    1.1689   -1.6305 C   0  0  0  0  0  0  0  0  0  0  0  0
   -0.9711    0.6356    0.8051 H   0  0  0  0  0  0  0  0  0  0  0  0
   -1.3037    0.5966   -0.9353 H   0  0  0  0  0  0  0  0  0  0  0  0
   -0.8859    2.1426   -0.1015 H   0  0  0  0  0  0  0  0  0  0  0  0
   -0.4270    2.5304   -2.2319 H   0  0  0  0  0  0  0  0  0  0  0  0
    0.7942    3.5420   -4.0576 H   0  0  0  0  0  0  0  0  0  0  0  0
    2.7556    3.2438   -5.5000 H   0  0  0  0  0  0  0  0  0  0  0  0
    6.0438    4.6509   -5.8425 H   0  0  0  0  0  0  0  0  0  0  0  0
    2.0632    4.5340   -7.7473 H   0  0  0  0  0  0  0  0  0  0  0  0
    1.9676    1.4894   -7.3019 H   0  0  0  0  0  0  0  0  0  0  0  0
    0.6110    2.7142   -6.9776 H   0  0  0  0  0  0  0  0  0  0  0  0
    5.6881    4.6652   -9.7669 H   0  0  0  0  0  0  0  0  0  0  0  0
    7.7229    4.1278  -11.0172 H   0  0  0  0  0  0  0  0  0  0  0  0
    9.2552    1.9997   -7.6015 H   0  0  0  0  0  0  0  0  0  0  0  0
    7.1435    2.4000   -6.3933 H   0  0  0  0  0  0  0  0  0  0  0  0
    6.3378    7.0025   -6.0872 H   0  0  0  0  0  0  0  0  0  0  0  0
    5.2958    9.2625   -6.0530 H   0  0  0  0  0  0  0  0  0  0  0  0
    2.8070    9.4511   -6.1066 H   0  0  0  0  0  0  0  0  0  0  0  0
    2.3375    5.4270   -6.0057 H   0  0  0  0  0  0  0  0  0  0  0  0
    4.4011    1.5311   -2.8243 H   0  0  0  0  0  0  0  0  0  0  0  0
    3.1580    0.4883   -0.9626 H   0  0  0  0  0  0  0  0  0  0  0  0
  1  2  1  0  0  0  0
  1 34  1  0  0  0  0
  1 35  1  0  0  0  0
  1 36  1  0  0  0  0
  2  3  1  0  0  0  0
  3  4  1  0  0  0  0
  3 33  2  0  0  0  0
  4  5  2  0  0  0  0
  4 37  1  0  0  0  0
  5  6  1  0  0  0  0
  5 38  1  0  0  0  0
  6  7  1  0  0  0  0
  6 32  2  0  0  0  0
  7  8  1  0  0  0  0
  7 39  1  0  0  0  0
  8  9  2  0  0  0  0
  8 10  1  0  0  0  0
 10 11  1  0  0  0  0
 10 26  1  0  0  0  0
 10 40  1  0  0  0  0
 11 12  1  0  0  0  0
 11 16  1  0  0  0  0
 12 13  2  0  0  0  0
 12 14  1  0  0  0  0
 14 15  2  0  0  0  0
 14 41  1  0  0  0  0
 15 42  1  0  0  0  0
 15 43  1  0  0  0  0
 16 17  1  0  0  0  0
 16 25  2  0  0  0  0
 17 18  2  0  0  0  0
 17 44  1  0  0  0  0
 18 19  1  0  0  0  0
 18 45  1  0  0  0  0
 19 20  1  0  0  0  0
 19 24  2  0  0  0  0
 20 21  1  0  0  0  0
 20 22  1  0  0  0  0
 20 23  1  0  0  0  0
 24 25  1  0  0  0  0
 24 46  1  0  0  0  0
 25 47  1  0  0  0  0
 26 27  1  0  0  0  0
 26 31  2  0  0  0  0
 27 28  2  0  0  0  0
 27 48  1  0  0  0  0
 28 29  1  0  0  0  0
 28 49  1  0  0  0  0
 29 30  2  0  0  0  0
 29 50  1  0  0  0  0
 30 31  1  0  0  0  0
 31 51  1  0  0  0  0
 32 33  1  0  0  0  0
 32 52  1  0  0  0  0
 33 53  1  0  0  0  0
M  END
$$$$
