
 OpenBabel07202414173D

 60 64  0  0  1  0  0  0  0  0999 V2000
    1.0149    0.0376   -0.1259 Cl  0  0  0  0  0  0  0  0  0  0  0  0
    2.7277    0.0172    0.0236 C   0  0  0  0  0  0  0  0  0  0  0  0
    3.4424    1.2057   -0.1056 C   0  0  0  0  0  0  0  0  0  0  0  0
    4.8357    1.1796   -0.0154 C   0  0  0  0  0  0  0  0  0  0  0  0
    5.5243   -0.0233    0.2109 C   0  0  0  0  0  0  0  0  0  0  0  0
    4.7919   -1.2192    0.3561 C   0  0  0  0  0  0  0  0  0  0  0  0
    3.3941   -1.1900    0.2554 C   0  0  0  0  0  0  0  0  0  0  0  0
    5.5181   -2.5350    0.6119 C   0  0  3  0  0  0  0  0  0  0  0  0
    5.4073   -2.9784    2.0999 C   0  0  0  0  0  0  0  0  0  0  0  0
    4.4256   -2.6793    2.7789 O   0  0  0  0  0  0  0  0  0  0  0  0
    6.4065   -3.8214    2.5422 N   0  0  0  0  0  0  0  0  0  0  0  0
    6.5804   -4.3799    3.8372 C   0  0  0  0  0  0  0  0  0  0  0  0
    5.6946   -4.1777    4.8939 C   0  0  0  0  0  0  0  0  0  0  0  0
    5.9911   -4.4446    6.1873 N   0  0  0  0  0  0  0  0  0  0  0  0
    7.1847   -5.0263    6.4272 C   0  0  0  0  0  0  0  0  0  0  0  0
    8.0532   -5.4774    5.4355 C   0  0  0  0  0  0  0  0  0  0  0  0
    9.1795   -6.2633    5.7445 C   0  0  0  0  0  0  0  0  0  0  0  0
   10.0288   -6.7196    4.7386 C   0  0  0  0  0  0  0  0  0  0  0  0
    9.7857   -6.3605    3.4202 C   0  0  0  0  0  0  0  0  0  0  0  0
    8.6724   -5.5804    3.1046 C   0  0  0  0  0  0  0  0  0  0  0  0
    7.7620   -5.1321    4.0982 C   0  0  0  0  0  0  0  0  0  0  0  0
    6.9276   -2.4608   -0.0049 C   0  0  0  0  0  0  0  0  0  0  0  0
    7.7093   -1.2881    0.5117 N   0  0  0  0  0  0  0  0  0  0  0  0
    9.3711   -1.3062    0.0427 S   0  0  0  0  0  0  0  0  0  0  0  0
    9.7691   -2.6950    0.0138 O   0  0  0  0  0  0  0  0  0  0  0  0
    9.5107   -0.4584   -1.1209 O   0  0  0  0  0  0  0  0  0  0  0  0
   10.1858   -0.5245    1.4410 C   0  0  0  0  0  0  0  0  0  0  0  0
   11.6998   -0.3110    1.2280 C   0  0  0  0  0  0  0  0  0  0  0  0
   12.3847   -1.5928    0.9772 C   0  0  0  0  0  0  0  0  0  0  0  0
   12.9631   -2.5882    0.8095 N   0  0  0  0  0  0  0  0  0  0  0  0
   12.3526    0.3442    2.4718 C   0  0  0  0  0  0  0  0  0  0  0  0
   13.5023    1.2234    1.9610 C   0  0  0  0  0  0  0  0  0  0  0  0
   13.4494    1.1678    0.4412 C   0  0  0  0  0  0  0  0  0  0  0  0
   12.0322    0.7047    0.1221 C   0  0  0  0  0  0  0  0  0  0  0  0
    7.0323   -0.0013    0.1628 C   0  0  0  0  0  0  0  0  0  0  0  0
    2.9315    2.1390   -0.2903 H   0  0  0  0  0  0  0  0  0  0  0  0
    5.3874    2.1112   -0.1529 H   0  0  0  0  0  0  0  0  0  0  0  0
    2.8172   -2.1027    0.3580 H   0  0  0  0  0  0  0  0  0  0  0  0
    4.9877   -3.3235    0.0556 H   0  0  0  0  0  0  0  0  0  0  0  0
    7.2328   -3.8868    1.9721 H   0  0  0  0  0  0  0  0  0  0  0  0
    4.6998   -3.7664    4.7552 H   0  0  0  0  0  0  0  0  0  0  0  0
    7.4317   -5.1276    7.4814 H   0  0  0  0  0  0  0  0  0  0  0  0
    9.3788   -6.5602    6.7726 H   0  0  0  0  0  0  0  0  0  0  0  0
   10.8725   -7.3602    4.9804 H   0  0  0  0  0  0  0  0  0  0  0  0
   10.4513   -6.6991    2.6284 H   0  0  0  0  0  0  0  0  0  0  0  0
    8.5153   -5.3710    2.0497 H   0  0  0  0  0  0  0  0  0  0  0  0
    6.8493   -2.3724   -1.0984 H   0  0  0  0  0  0  0  0  0  0  0  0
    7.4684   -3.3896    0.1823 H   0  0  0  0  0  0  0  0  0  0  0  0
   10.0020   -1.1736    2.3054 H   0  0  0  0  0  0  0  0  0  0  0  0
    9.6893    0.4371    1.6113 H   0  0  0  0  0  0  0  0  0  0  0  0
   12.7276   -0.3952    3.1915 H   0  0  0  0  0  0  0  0  0  0  0  0
   11.6374    0.9766    3.0079 H   0  0  0  0  0  0  0  0  0  0  0  0
   14.4747    0.8809    2.3313 H   0  0  0  0  0  0  0  0  0  0  0  0
   13.3664    2.2526    2.3115 H   0  0  0  0  0  0  0  0  0  0  0  0
   14.1815    0.4421    0.0666 H   0  0  0  0  0  0  0  0  0  0  0  0
   13.6818    2.1333   -0.0172 H   0  0  0  0  0  0  0  0  0  0  0  0
   11.9867    0.2858   -0.8876 H   0  0  0  0  0  0  0  0  0  0  0  0
   11.3524    1.5637    0.1704 H   0  0  0  0  0  0  0  0  0  0  0  0
    7.2779    0.2710   -0.8734 H   0  0  0  0  0  0  0  0  0  0  0  0
    7.4008    0.7783    0.8356 H   0  0  0  0  0  0  0  0  0  0  0  0
  1  2  1  0  0  0  0
  2  3  1  0  0  0  0
  2  7  2  0  0  0  0
  3  4  2  0  0  0  0
  3 36  1  0  0  0  0
  4  5  1  0  0  0  0
  4 37  1  0  0  0  0
  5  6  2  0  0  0  0
  5 35  1  0  0  0  0
  6  7  1  0  0  0  0
  6  8  1  0  0  0  0
  7 38  1  0  0  0  0
  8  9  1  0  0  0  0
  8 22  1  0  0  0  0
  8 39  1  0  0  0  0
  9 10  2  0  0  0  0
  9 11  1  0  0  0  0
 11 12  1  0  0  0  0
 11 40  1  0  0  0  0
 12 13  1  0  0  0  0
 12 21  2  0  0  0  0
 13 14  2  0  0  0  0
 13 41  1  0  0  0  0
 14 15  1  0  0  0  0
 15 16  2  0  0  0  0
 15 42  1  0  0  0  0
 16 17  1  0  0  0  0
 16 21  1  0  0  0  0
 17 18  2  0  0  0  0
 17 43  1  0  0  0  0
 18 19  1  0  0  0  0
 18 44  1  0  0  0  0
 19 20  2  0  0  0  0
 19 45  1  0  0  0  0
 20 21  1  0  0  0  0
 20 46  1  0  0  0  0
 22 23  1  0  0  0  0
 22 47  1  0  0  0  0
 22 48  1  0  0  0  0
 23 24  1  0  0  0  0
 23 35  1  0  0  0  0
 24 25  2  0  0  0  0
 24 26  2  0  0  0  0
 24 27  1  0  0  0  0
 27 28  1  0  0  0  0
 27 49  1  0  0  0  0
 27 50  1  0  0  0  0
 28 29  1  0  0  0  0
 28 31  1  0  0  0  0
 28 34  1  0  0  0  0
 29 30  3  0  0  0  0
 31 32  1  0  0  0  0
 31 51  1  0  0  0  0
 31 52  1  0  0  0  0
 32 33  1  0  0  0  0
 32 53  1  0  0  0  0
 32 54  1  0  0  0  0
 33 34  1  0  0  0  0
 33 55  1  0  0  0  0
 33 56  1  0  0  0  0
 34 57  1  0  0  0  0
 34 58  1  0  0  0  0
 35 59  1  0  0  0  0
 35 60  1  0  0  0  0
M  END
$$$$
