
 OpenBabel07202414193D

 61 64  0  0  1  0  0  0  0  0999 V2000
    2.6827   -0.0343   -1.3111 O   0  0  0  0  0  0  0  0  0  0  0  0
    2.2806    0.3069   -0.1972 C   0  0  0  0  0  0  0  0  0  0  0  0
    0.9661   -0.2876    0.3451 C   0  0  0  0  0  0  0  0  0  0  0  0
    1.0483   -1.6451    0.7051 O   0  0  0  0  0  0  0  0  0  0  0  0
    1.0664   -2.7335   -0.5032 S   0  0  0  0  0  0  0  0  0  0  0  0
    0.0088   -2.4044   -1.4262 O   0  0  0  0  0  0  0  0  0  0  0  0
    2.4166   -2.8909   -0.9630 O   0  0  0  0  0  0  0  0  0  0  0  0
    0.6210   -4.1829    0.2578 N   0  0  0  0  0  0  0  0  0  0  0  0
    1.5774   -4.7019    1.2837 C   0  0  0  0  0  0  0  0  0  0  0  0
    2.7540   -5.4590    0.6499 C   0  0  0  0  0  0  0  0  0  0  0  0
    2.2935   -6.5105   -0.2158 O   0  0  0  0  0  0  0  0  0  0  0  0
    1.4702   -5.9793   -1.2658 C   0  0  0  0  0  0  0  0  0  0  0  0
    0.2353   -5.2851   -0.6846 C   0  0  0  0  0  0  0  0  0  0  0  0
    2.9831    1.2243    0.5751 N   0  0  0  0  0  0  0  0  0  0  0  0
    2.5590    1.7173    1.8826 C   0  0  0  0  0  0  0  0  0  0  0  0
    3.7433    1.9379    2.8235 C   0  0  0  0  0  0  0  0  0  0  0  0
    4.8172    2.7793    2.2600 N   0  0  0  0  0  0  0  0  0  0  0  0
    5.9369    2.8452    3.2214 C   0  0  0  0  0  0  0  0  0  0  0  0
    5.5670    3.4980    4.5392 C   0  0  0  0  0  0  0  0  0  0  0  0
    5.1064    4.8232    4.5720 C   0  0  0  0  0  0  0  0  0  0  0  0
    4.8321    5.4494    5.7889 C   0  0  0  0  0  0  0  0  0  0  0  0
    5.0022    4.7529    6.9850 C   0  0  0  0  0  0  0  0  0  0  0  0
    5.4229    3.4250    6.9573 C   0  0  0  0  0  0  0  0  0  0  0  0
    5.6039    2.5550    8.4314 Cl  0  0  0  0  0  0  0  0  0  0  0  0
    5.7055    2.7955    5.7455 C   0  0  0  0  0  0  0  0  0  0  0  0
    5.2591    2.2265    0.9439 C   0  0  2  0  0  0  0  0  0  0  0  0
    6.2802    3.1254    0.2226 C   0  0  0  0  0  0  0  0  0  0  0  0
    5.7420    4.5324    0.0392 C   0  0  0  0  0  0  0  0  0  0  0  0
    4.3556    4.5908   -0.5919 C   0  0  0  0  0  0  0  0  0  0  0  0
    3.5231    3.3048   -0.6739 C   0  0  0  0  0  0  0  0  0  0  0  0
    4.0797    2.0068   -0.0474 C   0  0  2  0  0  0  0  0  0  0  0  0
    0.2013   -0.1231   -0.4207 H   0  0  0  0  0  0  0  0  0  0  0  0
    0.5866    0.2572    1.2074 H   0  0  0  0  0  0  0  0  0  0  0  0
    1.0175   -5.3855    1.9312 H   0  0  0  0  0  0  0  0  0  0  0  0
    1.9364   -3.8861    1.9225 H   0  0  0  0  0  0  0  0  0  0  0  0
    3.3530   -5.9265    1.4360 H   0  0  0  0  0  0  0  0  0  0  0  0
    3.4255   -4.8069    0.0875 H   0  0  0  0  0  0  0  0  0  0  0  0
    1.1587   -6.8191   -1.8942 H   0  0  0  0  0  0  0  0  0  0  0  0
    2.0656   -5.3066   -1.8911 H   0  0  0  0  0  0  0  0  0  0  0  0
   -0.3577   -6.0116   -0.1097 H   0  0  0  0  0  0  0  0  0  0  0  0
   -0.4153   -4.9104   -1.4794 H   0  0  0  0  0  0  0  0  0  0  0  0
    1.8904    1.0108    2.3755 H   0  0  0  0  0  0  0  0  0  0  0  0
    2.0025    2.6474    1.7237 H   0  0  0  0  0  0  0  0  0  0  0  0
    4.1434    0.9560    3.1057 H   0  0  0  0  0  0  0  0  0  0  0  0
    3.3322    2.4013    3.7272 H   0  0  0  0  0  0  0  0  0  0  0  0
    6.7609    3.4469    2.8228 H   0  0  0  0  0  0  0  0  0  0  0  0
    6.3465    1.8415    3.3994 H   0  0  0  0  0  0  0  0  0  0  0  0
    4.9625    5.3698    3.6413 H   0  0  0  0  0  0  0  0  0  0  0  0
    4.4929    6.4821    5.8031 H   0  0  0  0  0  0  0  0  0  0  0  0
    4.8057    5.2491    7.9314 H   0  0  0  0  0  0  0  0  0  0  0  0
    6.0382    1.7606    5.7415 H   0  0  0  0  0  0  0  0  0  0  0  0
    5.7280    1.2478    1.1163 H   0  0  0  0  0  0  0  0  0  0  0  0
    6.5195    2.7003   -0.7619 H   0  0  0  0  0  0  0  0  0  0  0  0
    7.2337    3.1607    0.7617 H   0  0  0  0  0  0  0  0  0  0  0  0
    6.4440    5.1209   -0.5629 H   0  0  0  0  0  0  0  0  0  0  0  0
    5.7081    5.0373    1.0132 H   0  0  0  0  0  0  0  0  0  0  0  0
    4.4522    5.0022   -1.6052 H   0  0  0  0  0  0  0  0  0  0  0  0
    3.7706    5.3445   -0.0459 H   0  0  0  0  0  0  0  0  0  0  0  0
    3.3204    3.1006   -1.7349 H   0  0  0  0  0  0  0  0  0  0  0  0
    2.5310    3.5346   -0.2647 H   0  0  0  0  0  0  0  0  0  0  0  0
    4.4837    1.4097   -0.8781 H   0  0  0  0  0  0  0  0  0  0  0  0
  1  2  2  0  0  0  0
  2  3  1  0  0  0  0
  2 14  1  0  0  0  0
  3  4  1  0  0  0  0
  3 32  1  0  0  0  0
  3 33  1  0  0  0  0
  4  5  1  0  0  0  0
  5  6  2  0  0  0  0
  5  7  2  0  0  0  0
  5  8  1  0  0  0  0
  8  9  1  0  0  0  0
  8 13  1  0  0  0  0
  9 10  1  0  0  0  0
  9 34  1  0  0  0  0
  9 35  1  0  0  0  0
 10 11  1  0  0  0  0
 10 36  1  0  0  0  0
 10 37  1  0  0  0  0
 11 12  1  0  0  0  0
 12 13  1  0  0  0  0
 12 38  1  0  0  0  0
 12 39  1  0  0  0  0
 13 40  1  0  0  0  0
 13 41  1  0  0  0  0
 14 15  1  0  0  0  0
 14 31  1  0  0  0  0
 15 16  1  0  0  0  0
 15 42  1  0  0  0  0
 15 43  1  0  0  0  0
 16 17  1  0  0  0  0
 16 44  1  0  0  0  0
 16 45  1  0  0  0  0
 17 18  1  0  0  0  0
 17 26  1  0  0  0  0
 18 19  1  0  0  0  0
 18 46  1  0  0  0  0
 18 47  1  0  0  0  0
 19 20  1  0  0  0  0
 19 25  2  0  0  0  0
 20 21  2  0  0  0  0
 20 48  1  0  0  0  0
 21 22  1  0  0  0  0
 21 49  1  0  0  0  0
 22 23  2  0  0  0  0
 22 50  1  0  0  0  0
 23 24  1  0  0  0  0
 23 25  1  0  0  0  0
 25 51  1  0  0  0  0
 26 27  1  0  0  0  0
 26 31  1  0  0  0  0
 26 52  1  1  0  0  0
 27 28  1  0  0  0  0
 27 53  1  0  0  0  0
 27 54  1  0  0  0  0
 28 29  1  0  0  0  0
 28 55  1  0  0  0  0
 28 56  1  0  0  0  0
 29 30  1  0  0  0  0
 29 57  1  0  0  0  0
 29 58  1  0  0  0  0
 30 31  1  0  0  0  0
 30 59  1  0  0  0  0
 30 60  1  0  0  0  0
 31 61  1  6  0  0  0
M  END
$$$$
