
 OpenBabel07202414153D

 67 70  0  0  1  0  0  0  0  0999 V2000
    9.4038    8.9711   -2.8338 C   0  0  0  0  0  0  0  0  0  0  0  0
    7.9814    9.0631   -2.8638 O   0  0  0  0  0  0  0  0  0  0  0  0
    7.3747    7.8441   -3.0934 C   0  0  0  0  0  0  0  0  0  0  0  0
    5.9914    7.8315   -3.1223 C   0  0  0  0  0  0  0  0  0  0  0  0
    5.3414    6.6214   -3.3668 C   0  0  0  0  0  0  0  0  0  0  0  0
    6.0959    5.4661   -3.5809 C   0  0  0  0  0  0  0  0  0  0  0  0
    5.4675    4.1175   -3.8111 C   0  0  0  0  0  0  0  0  0  0  0  0
    4.5874    4.0067   -5.0574 C   0  0  0  0  0  0  0  0  0  0  0  0
    5.3011    4.1167   -6.3273 N   0  0  0  0  0  0  0  0  0  0  0  0
    4.7418    3.5329   -7.4685 C   0  0  0  0  0  0  0  0  0  0  0  0
    3.7945    2.7551   -7.3661 O   0  0  0  0  0  0  0  0  0  0  0  0
    5.3175    4.0267   -8.8478 C   0  0  3  0  0  0  0  0  0  0  0  0
    5.1883    2.9919   -9.9325 N   0  0  0  0  0  0  0  0  0  0  0  0
    6.2490    2.2793  -10.5453 C   0  0  0  0  0  0  0  0  0  0  0  0
    6.0292    1.3802  -11.3604 O   0  0  0  0  0  0  0  0  0  0  0  0
    7.6600    2.6013  -10.3080 C   0  0  0  0  0  0  0  0  0  0  0  0
    8.6868    1.9130  -10.9351 C   0  0  0  0  0  0  0  0  0  0  0  0
    9.8731    2.4469  -10.5547 O   0  0  0  0  0  0  0  0  0  0  0  0
    9.5173    3.4448   -9.7068 C   0  0  0  0  0  0  0  0  0  0  0  0
    8.2220    3.5888   -9.5229 N   0  0  0  0  0  0  0  0  0  0  0  0
    3.8570    2.5210  -10.2418 C   0  0  0  0  0  0  0  0  0  0  0  0
    3.5553    1.1533  -10.1363 C   0  0  0  0  0  0  0  0  0  0  0  0
    2.2870    0.6623  -10.4570 C   0  0  0  0  0  0  0  0  0  0  0  0
    1.2841    1.5386  -10.8566 C   0  0  0  0  0  0  0  0  0  0  0  0
   -0.0135    1.1929  -11.1111 O   0  0  0  0  0  0  0  0  0  0  0  0
   -0.5342    0.0412  -10.4309 C   0  0  0  0  0  0  0  0  0  0  0  0
   -0.5528    0.2336   -8.9122 C   0  0  0  0  0  0  0  0  0  0  0  0
   -1.9682   -0.1454  -10.9244 C   0  0  0  0  0  0  0  0  0  0  0  0
    1.5848    2.8903  -11.0141 C   0  0  0  0  0  0  0  0  0  0  0  0
    2.8577    3.3812  -10.7018 C   0  0  0  0  0  0  0  0  0  0  0  0
    4.7959    5.4094   -9.2433 C   0  0  0  0  0  0  0  0  0  0  0  0
    5.2777    6.0598  -10.3892 C   0  0  0  0  0  0  0  0  0  0  0  0
    4.7940    7.3218  -10.7340 C   0  0  0  0  0  0  0  0  0  0  0  0
    3.8561    7.9159   -9.9092 C   0  0  0  0  0  0  0  0  0  0  0  0
    3.3663    7.3309   -8.7990 N   0  0  0  0  0  0  0  0  0  0  0  0
    3.8315    6.0952   -8.5015 C   0  0  0  0  0  0  0  0  0  0  0  0
    7.4794    5.5881   -3.5123 C   0  0  0  0  0  0  0  0  0  0  0  0
    8.1319    6.7457   -3.2834 N   0  0  0  0  0  0  0  0  0  0  0  0
    9.8053    9.9826   -2.7213 H   0  0  0  0  0  0  0  0  0  0  0  0
    9.8010    8.5627   -3.7702 H   0  0  0  0  0  0  0  0  0  0  0  0
    9.7390    8.3794   -1.9746 H   0  0  0  0  0  0  0  0  0  0  0  0
    5.4290    8.7455   -2.9469 H   0  0  0  0  0  0  0  0  0  0  0  0
    4.2543    6.5949   -3.3667 H   0  0  0  0  0  0  0  0  0  0  0  0
    4.8618    3.8823   -2.9256 H   0  0  0  0  0  0  0  0  0  0  0  0
    6.2470    3.3474   -3.8574 H   0  0  0  0  0  0  0  0  0  0  0  0
    3.8079    4.7769   -5.0621 H   0  0  0  0  0  0  0  0  0  0  0  0
    4.0790    3.0366   -5.0219 H   0  0  0  0  0  0  0  0  0  0  0  0
    5.9264    4.9074   -6.4476 H   0  0  0  0  0  0  0  0  0  0  0  0
    6.3699    4.1847   -8.6308 H   0  0  0  0  0  0  0  0  0  0  0  0
    8.7228    1.0913  -11.6391 H   0  0  0  0  0  0  0  0  0  0  0  0
   10.3281    4.0160   -9.2748 H   0  0  0  0  0  0  0  0  0  0  0  0
    4.3019    0.4480   -9.7790 H   0  0  0  0  0  0  0  0  0  0  0  0
    2.1153   -0.4042  -10.3674 H   0  0  0  0  0  0  0  0  0  0  0  0
    0.0302   -0.8556  -10.7111 H   0  0  0  0  0  0  0  0  0  0  0  0
   -1.1007    1.1427   -8.6421 H   0  0  0  0  0  0  0  0  0  0  0  0
    0.4547    0.3450   -8.5006 H   0  0  0  0  0  0  0  0  0  0  0  0
   -1.0178   -0.6224   -8.4143 H   0  0  0  0  0  0  0  0  0  0  0  0
   -2.5754    0.7401  -10.7035 H   0  0  0  0  0  0  0  0  0  0  0  0
   -2.4380   -1.0162  -10.4563 H   0  0  0  0  0  0  0  0  0  0  0  0
   -1.9888   -0.2788  -12.0110 H   0  0  0  0  0  0  0  0  0  0  0  0
    0.8197    3.5738  -11.3731 H   0  0  0  0  0  0  0  0  0  0  0  0
    3.0433    4.4325  -10.8820 H   0  0  0  0  0  0  0  0  0  0  0  0
    6.0114    5.5791  -11.0326 H   0  0  0  0  0  0  0  0  0  0  0  0
    5.1380    7.8301  -11.6280 H   0  0  0  0  0  0  0  0  0  0  0  0
    3.4577    8.9034  -10.1260 H   0  0  0  0  0  0  0  0  0  0  0  0
    3.3645    5.6717   -7.6160 H   0  0  0  0  0  0  0  0  0  0  0  0
    8.1292    4.7250   -3.6344 H   0  0  0  0  0  0  0  0  0  0  0  0
  1  2  1  0  0  0  0
  1 39  1  0  0  0  0
  1 40  1  0  0  0  0
  1 41  1  0  0  0  0
  2  3  1  0  0  0  0
  3  4  1  0  0  0  0
  3 38  2  0  0  0  0
  4  5  2  0  0  0  0
  4 42  1  0  0  0  0
  5  6  1  0  0  0  0
  5 43  1  0  0  0  0
  6  7  1  0  0  0  0
  6 37  2  0  0  0  0
  7  8  1  0  0  0  0
  7 44  1  0  0  0  0
  7 45  1  0  0  0  0
  8  9  1  0  0  0  0
  8 46  1  0  0  0  0
  8 47  1  0  0  0  0
  9 10  1  0  0  0  0
  9 48  1  0  0  0  0
 10 11  2  0  0  0  0
 10 12  1  0  0  0  0
 12 13  1  0  0  0  0
 12 31  1  0  0  0  0
 12 49  1  0  0  0  0
 13 14  1  0  0  0  0
 13 21  1  0  0  0  0
 14 15  2  0  0  0  0
 14 16  1  0  0  0  0
 16 17  2  0  0  0  0
 16 20  1  0  0  0  0
 17 18  1  0  0  0  0
 17 50  1  0  0  0  0
 18 19  1  0  0  0  0
 19 20  2  0  0  0  0
 19 51  1  0  0  0  0
 21 22  1  0  0  0  0
 21 30  2  0  0  0  0
 22 23  2  0  0  0  0
 22 52  1  0  0  0  0
 23 24  1  0  0  0  0
 23 53  1  0  0  0  0
 24 25  1  0  0  0  0
 24 29  2  0  0  0  0
 25 26  1  0  0  0  0
 26 27  1  0  0  0  0
 26 28  1  0  0  0  0
 26 54  1  0  0  0  0
 27 55  1  0  0  0  0
 27 56  1  0  0  0  0
 27 57  1  0  0  0  0
 28 58  1  0  0  0  0
 28 59  1  0  0  0  0
 28 60  1  0  0  0  0
 29 30  1  0  0  0  0
 29 61  1  0  0  0  0
 30 62  1  0  0  0  0
 31 32  1  0  0  0  0
 31 36  2  0  0  0  0
 32 33  2  0  0  0  0
 32 63  1  0  0  0  0
 33 34  1  0  0  0  0
 33 64  1  0  0  0  0
 34 35  2  0  0  0  0
 34 65  1  0  0  0  0
 35 36  1  0  0  0  0
 36 66  1  0  0  0  0
 37 38  1  0  0  0  0
 37 67  1  0  0  0  0
M  END
$$$$
