
 OpenBabel07202414183D

 69 73  0  0  1  0  0  0  0  0999 V2000
    6.2649    0.9213   -1.0301 F   0  0  0  0  0  0  0  0  0  0  0  0
    4.9372    1.1958   -0.9386 C   0  0  0  0  0  0  0  0  0  0  0  0
    4.6215    1.8768   -2.0761 F   0  0  0  0  0  0  0  0  0  0  0  0
    4.1387   -0.1028   -0.9110 C   0  0  0  0  0  0  0  0  0  0  0  0
    4.4321   -1.0027    0.2099 N   0  0  0  0  0  0  0  0  0  0  0  0
    4.0559   -0.5815    1.4840 C   0  0  0  0  0  0  0  0  0  0  0  0
    3.6114    0.5451    1.7057 O   0  0  0  0  0  0  0  0  0  0  0  0
    4.3142   -1.5606    2.6052 C   0  0  0  0  0  0  0  0  0  0  0  0
    3.9013   -2.9552    2.1613 C   0  0  0  0  0  0  0  0  0  0  0  0
    4.6889   -3.3176    0.9306 C   0  0  0  0  0  0  0  0  0  0  0  0
    5.1729   -4.6269    0.7327 C   0  0  0  0  0  0  0  0  0  0  0  0
    6.0753   -4.9031   -0.3094 C   0  0  0  0  0  0  0  0  0  0  0  0
    6.8169   -6.1389   -0.2893 N   0  0  0  0  0  0  0  0  0  0  0  0
    8.3170   -6.1189   -0.2299 C   0  0  3  0  0  0  0  0  0  0  0  0
    8.9450   -6.1453   -1.6687 C   0  0  0  0  0  0  0  0  0  0  0  0
    9.1692   -7.1874   -2.2825 O   0  0  0  0  0  0  0  0  0  0  0  0
    9.1950   -4.9031   -2.2323 N   0  0  0  0  0  0  0  0  0  0  0  0
    9.9372   -4.7365   -3.4684 C   0  0  0  0  0  0  0  0  0  0  0  0
    9.5404   -3.4493   -4.2001 C   0  0  0  0  0  0  0  0  0  0  0  0
    9.8882   -2.1754   -3.4607 C   0  0  0  0  0  0  0  0  0  0  0  0
    8.8779   -1.2913   -3.0522 C   0  0  0  0  0  0  0  0  0  0  0  0
    9.1899   -0.0997   -2.3904 C   0  0  0  0  0  0  0  0  0  0  0  0
   10.5186    0.2295   -2.1397 C   0  0  0  0  0  0  0  0  0  0  0  0
   11.5220   -0.6380   -2.5498 C   0  0  0  0  0  0  0  0  0  0  0  0
   12.8025   -0.3195   -2.3198 F   0  0  0  0  0  0  0  0  0  0  0  0
   11.2217   -1.8309   -3.2038 C   0  0  0  0  0  0  0  0  0  0  0  0
    9.0445   -5.0876    0.6572 C   0  0  0  0  0  0  0  0  0  0  0  0
   10.4534   -5.0531    0.6535 C   0  0  0  0  0  0  0  0  0  0  0  0
   11.1458   -4.0445    1.3200 C   0  0  0  0  0  0  0  0  0  0  0  0
   10.4145   -3.1015    2.0120 C   0  0  0  0  0  0  0  0  0  0  0  0
    9.0777   -3.1571    2.1381 N   0  0  0  0  0  0  0  0  0  0  0  0
    8.4383   -4.1619    1.4917 C   0  0  0  0  0  0  0  0  0  0  0  0
    6.0647   -7.3248   -0.5036 C   0  0  0  0  0  0  0  0  0  0  0  0
    4.8416   -7.2788   -0.6690 O   0  0  0  0  0  0  0  0  0  0  0  0
    6.7259   -8.6449   -0.6020 C   0  0  0  0  0  0  0  0  0  0  0  0
    6.2214   -9.7179   -1.3292 C   0  0  0  0  0  0  0  0  0  0  0  0
    7.1092  -10.7426   -1.1640 N   0  0  0  0  0  0  0  0  0  0  0  0
    8.0933  -10.2970   -0.3299 C   0  0  0  0  0  0  0  0  0  0  0  0
    7.8793   -9.0533    0.0462 N   0  0  0  0  0  0  0  0  0  0  0  0
    6.3151   -3.9026   -1.2516 C   0  0  0  0  0  0  0  0  0  0  0  0
    5.7393   -2.6287   -1.1195 C   0  0  0  0  0  0  0  0  0  0  0  0
    4.9508   -2.3123   -0.0133 C   0  0  0  0  0  0  0  0  0  0  0  0
    4.7644    1.8530   -0.0839 H   0  0  0  0  0  0  0  0  0  0  0  0
    4.2463   -0.6214   -1.8683 H   0  0  0  0  0  0  0  0  0  0  0  0
    3.0735    0.1566   -0.8481 H   0  0  0  0  0  0  0  0  0  0  0  0
    3.7343   -1.2565    3.4830 H   0  0  0  0  0  0  0  0  0  0  0  0
    5.3789   -1.5143    2.8678 H   0  0  0  0  0  0  0  0  0  0  0  0
    2.8309   -2.9848    1.9250 H   0  0  0  0  0  0  0  0  0  0  0  0
    4.0935   -3.6651    2.9728 H   0  0  0  0  0  0  0  0  0  0  0  0
    4.9410   -5.4000    1.4633 H   0  0  0  0  0  0  0  0  0  0  0  0
    8.6322   -7.0473    0.2428 H   0  0  0  0  0  0  0  0  0  0  0  0
    9.1536   -4.0935   -1.6213 H   0  0  0  0  0  0  0  0  0  0  0  0
    9.7592   -5.6001   -4.1180 H   0  0  0  0  0  0  0  0  0  0  0  0
   11.0006   -4.7376   -3.2041 H   0  0  0  0  0  0  0  0  0  0  0  0
    8.4607   -3.4753   -4.3967 H   0  0  0  0  0  0  0  0  0  0  0  0
   10.0324   -3.4178   -5.1795 H   0  0  0  0  0  0  0  0  0  0  0  0
    7.8346   -1.5147   -3.2595 H   0  0  0  0  0  0  0  0  0  0  0  0
    8.3969    0.5766   -2.0793 H   0  0  0  0  0  0  0  0  0  0  0  0
   10.7754    1.1569   -1.6378 H   0  0  0  0  0  0  0  0  0  0  0  0
   12.0406   -2.4702   -3.5190 H   0  0  0  0  0  0  0  0  0  0  0  0
   11.0267   -5.8013    0.1066 H   0  0  0  0  0  0  0  0  0  0  0  0
   12.2277   -3.9893    1.2876 H   0  0  0  0  0  0  0  0  0  0  0  0
   10.8929   -2.2631    2.5079 H   0  0  0  0  0  0  0  0  0  0  0  0
    7.3822   -4.1677    1.7043 H   0  0  0  0  0  0  0  0  0  0  0  0
    5.3338   -9.8155   -1.9402 H   0  0  0  0  0  0  0  0  0  0  0  0
    7.0500  -11.6637   -1.5793 H   0  0  0  0  0  0  0  0  0  0  0  0
    8.9281  -10.9168   -0.0301 H   0  0  0  0  0  0  0  0  0  0  0  0
    6.9250   -4.0942   -2.1247 H   0  0  0  0  0  0  0  0  0  0  0  0
    5.9899   -1.8763   -1.8595 H   0  0  0  0  0  0  0  0  0  0  0  0
  1  2  1  0  0  0  0
  2  3  1  0  0  0  0
  2  4  1  0  0  0  0
  2 43  1  0  0  0  0
  4  5  1  0  0  0  0
  4 44  1  0  0  0  0
  4 45  1  0  0  0  0
  5  6  1  0  0  0  0
  5 42  1  0  0  0  0
  6  7  2  0  0  0  0
  6  8  1  0  0  0  0
  8  9  1  0  0  0  0
  8 46  1  0  0  0  0
  8 47  1  0  0  0  0
  9 10  1  0  0  0  0
  9 48  1  0  0  0  0
  9 49  1  0  0  0  0
 10 11  1  0  0  0  0
 10 42  2  0  0  0  0
 11 12  2  0  0  0  0
 11 50  1  0  0  0  0
 12 13  1  0  0  0  0
 12 40  1  0  0  0  0
 13 14  1  0  0  0  0
 13 33  1  0  0  0  0
 14 15  1  0  0  0  0
 14 27  1  0  0  0  0
 14 51  1  0  0  0  0
 15 16  2  0  0  0  0
 15 17  1  0  0  0  0
 17 18  1  0  0  0  0
 17 52  1  0  0  0  0
 18 19  1  0  0  0  0
 18 53  1  0  0  0  0
 18 54  1  0  0  0  0
 19 20  1  0  0  0  0
 19 55  1  0  0  0  0
 19 56  1  0  0  0  0
 20 21  1  0  0  0  0
 20 26  2  0  0  0  0
 21 22  2  0  0  0  0
 21 57  1  0  0  0  0
 22 23  1  0  0  0  0
 22 58  1  0  0  0  0
 23 24  2  0  0  0  0
 23 59  1  0  0  0  0
 24 25  1  0  0  0  0
 24 26  1  0  0  0  0
 26 60  1  0  0  0  0
 27 28  1  0  0  0  0
 27 32  2  0  0  0  0
 28 29  2  0  0  0  0
 28 61  1  0  0  0  0
 29 30  1  0  0  0  0
 29 62  1  0  0  0  0
 30 31  2  0  0  0  0
 30 63  1  0  0  0  0
 31 32  1  0  0  0  0
 32 64  1  0  0  0  0
 33 34  2  0  0  0  0
 33 35  1  0  0  0  0
 35 36  2  0  0  0  0
 35 39  1  0  0  0  0
 36 37  1  0  0  0  0
 36 65  1  0  0  0  0
 37 38  1  0  0  0  0
 37 66  1  0  0  0  0
 38 39  2  0  0  0  0
 38 67  1  0  0  0  0
 40 41  2  0  0  0  0
 40 68  1  0  0  0  0
 41 42  1  0  0  0  0
 41 69  1  0  0  0  0
M  END
$$$$
