
 OpenBabel07202414123D

 66 71  0  0  1  0  0  0  0  0999 V2000
    1.2329    0.1726   -1.0449 C   0  0  0  0  0  0  0  0  0  0  0  0
    2.6702    0.1362   -0.5166 C   0  0  3  0  0  0  0  0  0  0  0  0
    2.7614    0.8739    0.8386 C   0  0  0  0  0  0  0  0  0  0  0  0
    4.2062    0.8730    1.3638 C   0  0  3  0  0  0  0  0  0  0  0  0
    5.1415    1.5299    0.3514 C   0  0  0  0  0  0  0  0  0  0  0  0
    5.0866    0.7688   -0.9902 C   0  0  3  0  0  0  0  0  0  0  0  0
    6.0389    1.4326   -1.9839 C   0  0  0  0  0  0  0  0  0  0  0  0
    3.6332    0.8118   -1.5186 C   0  0  0  0  0  0  0  0  0  0  0  0
    5.4885   -0.7091   -0.7616 C   0  0  0  0  0  0  0  0  0  0  0  0
    4.5406   -1.3941    0.2724 C   0  0  3  0  0  0  0  0  0  0  0  0
    4.9550   -2.8068    0.4434 N   0  0  0  0  0  0  0  0  0  0  0  0
    4.7433   -3.5202    1.6249 C   0  0  0  0  0  0  0  0  0  0  0  0
    3.6235   -3.3306    2.4446 C   0  0  0  0  0  0  0  0  0  0  0  0
    3.5130   -3.9057    3.7175 C   0  0  0  0  0  0  0  0  0  0  0  0
    2.3682   -3.5060    4.6176 C   0  0  0  0  0  0  0  0  0  0  0  0
    2.5601   -2.2784    5.5044 C   0  0  0  0  0  0  0  0  0  0  0  0
    1.5745   -1.7257    5.9926 O   0  0  0  0  0  0  0  0  0  0  0  0
    3.8560   -1.8529    5.7230 N   0  0  0  0  0  0  0  0  0  0  0  0
    4.1915   -0.7896    6.6030 C   0  0  0  0  0  0  0  0  0  0  0  0
    3.5498   -0.6333    7.8340 C   0  0  0  0  0  0  0  0  0  0  0  0
    3.8621    0.3149    8.7475 N   0  0  0  0  0  0  0  0  0  0  0  0
    4.8422    1.1792    8.4046 C   0  0  0  0  0  0  0  0  0  0  0  0
    5.5345    1.1537    7.1941 C   0  0  0  0  0  0  0  0  0  0  0  0
    6.5098    2.1198    6.8836 C   0  0  0  0  0  0  0  0  0  0  0  0
    7.1520    2.1078    5.6477 C   0  0  0  0  0  0  0  0  0  0  0  0
    6.8427    1.1228    4.7193 C   0  0  0  0  0  0  0  0  0  0  0  0
    5.8977    0.1428    5.0312 C   0  0  0  0  0  0  0  0  0  0  0  0
    5.2140    0.1315    6.2651 C   0  0  0  0  0  0  0  0  0  0  0  0
    4.4963   -4.8063    4.1276 C   0  0  0  0  0  0  0  0  0  0  0  0
    5.5480   -5.1182    3.2668 C   0  0  0  0  0  0  0  0  0  0  0  0
    6.7320   -6.2665    3.7582 Cl  0  0  0  0  0  0  0  0  0  0  0  0
    5.6734   -4.4838    2.0268 C   0  0  0  0  0  0  0  0  0  0  0  0
    4.6625   -0.5688    1.5773 C   0  0  0  0  0  0  0  0  0  0  0  0
    3.1153   -1.3280   -0.3190 C   0  0  0  0  0  0  0  0  0  0  0  0
    0.8905    1.2021   -1.1917 H   0  0  0  0  0  0  0  0  0  0  0  0
    0.5429   -0.3125   -0.3447 H   0  0  0  0  0  0  0  0  0  0  0  0
    1.1523   -0.3490   -2.0049 H   0  0  0  0  0  0  0  0  0  0  0  0
    2.1023    0.3954    1.5747 H   0  0  0  0  0  0  0  0  0  0  0  0
    2.4128    1.9089    0.7312 H   0  0  0  0  0  0  0  0  0  0  0  0
    4.2516    1.4136    2.3163 H   0  0  0  0  0  0  0  0  0  0  0  0
    6.1660    1.5326    0.7458 H   0  0  0  0  0  0  0  0  0  0  0  0
    4.8541    2.5796    0.2137 H   0  0  0  0  0  0  0  0  0  0  0  0
    5.7556    2.4803   -2.1579 H   0  0  0  0  0  0  0  0  0  0  0  0
    6.0206    0.9219   -2.9520 H   0  0  0  0  0  0  0  0  0  0  0  0
    7.0694    1.4256   -1.6163 H   0  0  0  0  0  0  0  0  0  0  0  0
    3.5742    0.3082   -2.4927 H   0  0  0  0  0  0  0  0  0  0  0  0
    3.3251    1.8527   -1.6852 H   0  0  0  0  0  0  0  0  0  0  0  0
    6.5277   -0.7674   -0.4072 H   0  0  0  0  0  0  0  0  0  0  0  0
    5.4643   -1.2607   -1.7136 H   0  0  0  0  0  0  0  0  0  0  0  0
    5.8629   -3.0036    0.0277 H   0  0  0  0  0  0  0  0  0  0  0  0
    2.8179   -2.6795    2.1199 H   0  0  0  0  0  0  0  0  0  0  0  0
    2.1031   -4.3433    5.2722 H   0  0  0  0  0  0  0  0  0  0  0  0
    1.4891   -3.3091    3.9883 H   0  0  0  0  0  0  0  0  0  0  0  0
    4.5502   -2.1204    5.0384 H   0  0  0  0  0  0  0  0  0  0  0  0
    2.7672   -1.3170    8.1558 H   0  0  0  0  0  0  0  0  0  0  0  0
    5.0481    1.9363    9.1594 H   0  0  0  0  0  0  0  0  0  0  0  0
    6.7524    2.9054    7.5963 H   0  0  0  0  0  0  0  0  0  0  0  0
    7.8843    2.8735    5.4059 H   0  0  0  0  0  0  0  0  0  0  0  0
    7.3236    1.1195    3.7445 H   0  0  0  0  0  0  0  0  0  0  0  0
    5.6753   -0.5949    4.2687 H   0  0  0  0  0  0  0  0  0  0  0  0
    4.4364   -5.2771    5.1057 H   0  0  0  0  0  0  0  0  0  0  0  0
    6.5182   -4.7273    1.3889 H   0  0  0  0  0  0  0  0  0  0  0  0
    5.7014   -0.5945    1.9309 H   0  0  0  0  0  0  0  0  0  0  0  0
    4.0554   -0.9604    2.3932 H   0  0  0  0  0  0  0  0  0  0  0  0
    2.3893   -1.8435    0.3159 H   0  0  0  0  0  0  0  0  0  0  0  0
    3.0886   -1.8626   -1.2781 H   0  0  0  0  0  0  0  0  0  0  0  0
  1  2  1  0  0  0  0
  1 35  1  0  0  0  0
  1 36  1  0  0  0  0
  1 37  1  0  0  0  0
  2  3  1  0  0  0  0
  2  8  1  0  0  0  0
  2 34  1  0  0  0  0
  3  4  1  0  0  0  0
  3 38  1  0  0  0  0
  3 39  1  0  0  0  0
  4  5  1  0  0  0  0
  4 33  1  0  0  0  0
  4 40  1  0  0  0  0
  5  6  1  0  0  0  0
  5 41  1  0  0  0  0
  5 42  1  0  0  0  0
  6  7  1  0  0  0  0
  6  8  1  0  0  0  0
  6  9  1  0  0  0  0
  7 43  1  0  0  0  0
  7 44  1  0  0  0  0
  7 45  1  0  0  0  0
  8 46  1  0  0  0  0
  8 47  1  0  0  0  0
  9 10  1  0  0  0  0
  9 48  1  0  0  0  0
  9 49  1  0  0  0  0
 10 11  1  0  0  0  0
 10 33  1  0  0  0  0
 10 34  1  0  0  0  0
 11 12  1  0  0  0  0
 11 50  1  0  0  0  0
 12 13  2  0  0  0  0
 12 32  1  0  0  0  0
 13 14  1  0  0  0  0
 13 51  1  0  0  0  0
 14 15  1  0  0  0  0
 14 29  2  0  0  0  0
 15 16  1  0  0  0  0
 15 52  1  0  0  0  0
 15 53  1  0  0  0  0
 16 17  2  0  0  0  0
 16 18  1  0  0  0  0
 18 19  1  0  0  0  0
 18 54  1  0  0  0  0
 19 20  2  0  0  0  0
 19 28  1  0  0  0  0
 20 21  1  0  0  0  0
 20 55  1  0  0  0  0
 21 22  2  0  0  0  0
 22 23  1  0  0  0  0
 22 56  1  0  0  0  0
 23 24  2  0  0  0  0
 23 28  1  0  0  0  0
 24 25  1  0  0  0  0
 24 57  1  0  0  0  0
 25 26  2  0  0  0  0
 25 58  1  0  0  0  0
 26 27  1  0  0  0  0
 26 59  1  0  0  0  0
 27 28  2  0  0  0  0
 27 60  1  0  0  0  0
 29 30  1  0  0  0  0
 29 61  1  0  0  0  0
 30 31  1  0  0  0  0
 30 32  2  0  0  0  0
 32 62  1  0  0  0  0
 33 63  1  0  0  0  0
 33 64  1  0  0  0  0
 34 65  1  0  0  0  0
 34 66  1  0  0  0  0
M  END
$$$$
