
 OpenBabel07202414173D

 50 54  0  0  1  0  0  0  0  0999 V2000
    1.0029   -0.2108   -0.0759 Cl  0  0  0  0  0  0  0  0  0  0  0  0
    2.7221   -0.1963   -0.0265 C   0  0  0  0  0  0  0  0  0  0  0  0
    3.4033    1.0110   -0.1529 C   0  0  0  0  0  0  0  0  0  0  0  0
    4.7976    1.0276   -0.1224 C   0  0  0  0  0  0  0  0  0  0  0  0
    5.5181   -0.1622    0.0548 C   0  0  0  0  0  0  0  0  0  0  0  0
    4.8283   -1.3854    0.1990 C   0  0  0  0  0  0  0  0  0  0  0  0
    3.4222   -1.3900    0.1502 C   0  0  0  0  0  0  0  0  0  0  0  0
    5.5912   -2.6837    0.5200 C   0  0  3  0  0  0  0  0  0  0  0  0
    5.4323   -3.0997    2.0284 C   0  0  0  0  0  0  0  0  0  0  0  0
    5.5202   -4.2706    2.3846 O   0  0  0  0  0  0  0  0  0  0  0  0
    5.2119   -2.0407    2.9037 N   0  0  0  0  0  0  0  0  0  0  0  0
    4.8621   -2.0816    4.2796 C   0  0  0  0  0  0  0  0  0  0  0  0
    4.6743   -3.2662    4.9893 C   0  0  0  0  0  0  0  0  0  0  0  0
    4.1632   -3.3303    6.2426 N   0  0  0  0  0  0  0  0  0  0  0  0
    3.8702   -2.1568    6.8401 C   0  0  0  0  0  0  0  0  0  0  0  0
    4.1224   -0.9039    6.2868 C   0  0  0  0  0  0  0  0  0  0  0  0
    3.8970    0.2765    7.0207 C   0  0  0  0  0  0  0  0  0  0  0  0
    4.1784    1.5244    6.4708 C   0  0  0  0  0  0  0  0  0  0  0  0
    4.6639    1.6085    5.1744 C   0  0  0  0  0  0  0  0  0  0  0  0
    4.8808    0.4422    4.4335 C   0  0  0  0  0  0  0  0  0  0  0  0
    4.6286   -0.8502    4.9657 C   0  0  0  0  0  0  0  0  0  0  0  0
    7.0237   -2.5808    0.0595 N   0  0  0  0  0  0  0  0  0  0  0  0
    7.8985   -4.0375    0.1770 S   0  0  0  0  0  0  0  0  0  0  0  0
    8.6745   -3.9706    1.3939 O   0  0  0  0  0  0  0  0  0  0  0  0
    6.9682   -5.1159   -0.0879 O   0  0  0  0  0  0  0  0  0  0  0  0
    9.1086   -4.2302   -1.1713 C   0  0  0  0  0  0  0  0  0  0  0  0
   10.1300   -3.1468   -1.3571 C   0  0  0  0  0  0  0  0  0  0  0  0
    8.9970   -3.2895   -2.3383 C   0  0  0  0  0  0  0  0  0  0  0  0
    7.6733   -1.3720    0.6234 C   0  0  0  0  0  0  0  0  0  0  0  0
    7.0274   -0.1258    0.0180 C   0  0  0  0  0  0  0  0  0  0  0  0
    2.8556    1.9407   -0.2876 H   0  0  0  0  0  0  0  0  0  0  0  0
    5.3187    1.9755   -0.2451 H   0  0  0  0  0  0  0  0  0  0  0  0
    2.8701   -2.3218    0.2634 H   0  0  0  0  0  0  0  0  0  0  0  0
    5.1001   -3.4601   -0.0821 H   0  0  0  0  0  0  0  0  0  0  0  0
    5.1440   -1.1272    2.4851 H   0  0  0  0  0  0  0  0  0  0  0  0
    4.9121   -4.2405    4.5747 H   0  0  0  0  0  0  0  0  0  0  0  0
    3.4147   -2.2574    7.8226 H   0  0  0  0  0  0  0  0  0  0  0  0
    3.5248    0.2274    8.0429 H   0  0  0  0  0  0  0  0  0  0  0  0
    4.0311    2.4279    7.0578 H   0  0  0  0  0  0  0  0  0  0  0  0
    4.8894    2.5784    4.7385 H   0  0  0  0  0  0  0  0  0  0  0  0
    5.2899    0.5750    3.4364 H   0  0  0  0  0  0  0  0  0  0  0  0
    9.4157   -5.2505   -1.3567 H   0  0  0  0  0  0  0  0  0  0  0  0
   11.1220   -3.4549   -1.6737 H   0  0  0  0  0  0  0  0  0  0  0  0
   10.1498   -2.2892   -0.7050 H   0  0  0  0  0  0  0  0  0  0  0  0
    9.2375   -3.6835   -3.3219 H   0  0  0  0  0  0  0  0  0  0  0  0
    8.2241   -2.5326   -2.3537 H   0  0  0  0  0  0  0  0  0  0  0  0
    8.7395   -1.3438    0.4045 H   0  0  0  0  0  0  0  0  0  0  0  0
    7.5725   -1.3620    1.7135 H   0  0  0  0  0  0  0  0  0  0  0  0
    7.3324   -0.0317   -1.0316 H   0  0  0  0  0  0  0  0  0  0  0  0
    7.3935    0.7576    0.5547 H   0  0  0  0  0  0  0  0  0  0  0  0
  1  2  1  0  0  0  0
  2  3  1  0  0  0  0
  2  7  2  0  0  0  0
  3  4  2  0  0  0  0
  3 31  1  0  0  0  0
  4  5  1  0  0  0  0
  4 32  1  0  0  0  0
  5  6  2  0  0  0  0
  5 30  1  0  0  0  0
  6  7  1  0  0  0  0
  6  8  1  0  0  0  0
  7 33  1  0  0  0  0
  8  9  1  0  0  0  0
  8 22  1  0  0  0  0
  8 34  1  0  0  0  0
  9 10  2  0  0  0  0
  9 11  1  0  0  0  0
 11 12  1  0  0  0  0
 11 35  1  0  0  0  0
 12 13  1  0  0  0  0
 12 21  2  0  0  0  0
 13 14  2  0  0  0  0
 13 36  1  0  0  0  0
 14 15  1  0  0  0  0
 15 16  2  0  0  0  0
 15 37  1  0  0  0  0
 16 17  1  0  0  0  0
 16 21  1  0  0  0  0
 17 18  2  0  0  0  0
 17 38  1  0  0  0  0
 18 19  1  0  0  0  0
 18 39  1  0  0  0  0
 19 20  2  0  0  0  0
 19 40  1  0  0  0  0
 20 21  1  0  0  0  0
 20 41  1  0  0  0  0
 22 23  1  0  0  0  0
 22 29  1  0  0  0  0
 23 24  2  0  0  0  0
 23 25  2  0  0  0  0
 23 26  1  0  0  0  0
 26 27  1  0  0  0  0
 26 28  1  0  0  0  0
 26 42  1  0  0  0  0
 27 28  1  0  0  0  0
 27 43  1  0  0  0  0
 27 44  1  0  0  0  0
 28 45  1  0  0  0  0
 28 46  1  0  0  0  0
 29 30  1  0  0  0  0
 29 47  1  0  0  0  0
 29 48  1  0  0  0  0
 30 49  1  0  0  0  0
 30 50  1  0  0  0  0
M  END
$$$$
