
 OpenBabel07202414133D

 62 67  0  0  1  0  0  0  0  0999 V2000
    2.0410    0.4964   -0.6769 C   0  0  0  0  0  0  0  0  0  0  0  0
    3.4856   -0.0271   -0.7310 C   0  0  3  0  0  0  0  0  0  0  0  0
    3.6663   -1.3078   -0.0158 N   0  0  0  0  0  0  0  0  0  0  0  0
    3.0547   -2.4127   -0.6074 C   0  0  0  0  0  0  0  0  0  0  0  0
    2.4659   -2.3078   -1.6841 O   0  0  0  0  0  0  0  0  0  0  0  0
    3.1037   -3.7503    0.1370 C   0  0  0  0  0  0  0  0  0  0  0  0
    2.4197   -4.9109   -0.6618 C   0  0  3  0  0  0  0  0  0  0  0  0
    3.2371   -5.0721   -1.9871 C   0  0  0  0  0  0  0  0  0  0  0  0
    4.3136   -4.4875   -2.1191 O   0  0  0  0  0  0  0  0  0  0  0  0
    2.7608   -6.0050   -2.8900 N   0  0  0  0  0  0  0  0  0  0  0  0
    3.4494   -6.4743   -4.0510 C   0  0  0  0  0  0  0  0  0  0  0  0
    4.6720   -5.9447   -4.4784 C   0  0  0  0  0  0  0  0  0  0  0  0
    5.4474   -6.4714   -5.4552 N   0  0  0  0  0  0  0  0  0  0  0  0
    4.9575   -7.5465   -6.0957 C   0  0  0  0  0  0  0  0  0  0  0  0
    3.6953   -8.0844   -5.8660 C   0  0  0  0  0  0  0  0  0  0  0  0
    3.2017   -9.1156   -6.6828 C   0  0  0  0  0  0  0  0  0  0  0  0
    1.9219   -9.6239   -6.4857 C   0  0  0  0  0  0  0  0  0  0  0  0
    1.1444   -9.1393   -5.4429 C   0  0  0  0  0  0  0  0  0  0  0  0
    1.6346   -8.1292   -4.6091 C   0  0  0  0  0  0  0  0  0  0  0  0
    2.9146   -7.5530   -4.8085 C   0  0  0  0  0  0  0  0  0  0  0  0
    0.9116   -4.6479   -0.8981 C   0  0  0  0  0  0  0  0  0  0  0  0
    0.1711   -4.6573    0.4327 C   0  0  0  0  0  0  0  0  0  0  0  0
    0.2189   -5.9375    1.0558 O   0  0  0  0  0  0  0  0  0  0  0  0
    1.4092   -6.6043    0.9700 C   0  0  0  0  0  0  0  0  0  0  0  0
    1.4600   -7.7927    1.7050 C   0  0  0  0  0  0  0  0  0  0  0  0
    2.5959   -8.5973    1.6686 C   0  0  0  0  0  0  0  0  0  0  0  0
    3.6861   -8.2033    0.9016 C   0  0  0  0  0  0  0  0  0  0  0  0
    5.0847   -9.2020    0.8340 Cl  0  0  0  0  0  0  0  0  0  0  0  0
    3.6497   -7.0107    0.1747 C   0  0  0  0  0  0  0  0  0  0  0  0
    2.4994   -6.1968    0.1826 C   0  0  0  0  0  0  0  0  0  0  0  0
    4.1551   -1.3231    1.3662 C   0  0  0  0  0  0  0  0  0  0  0  0
    5.1199   -0.2110    1.7828 C   0  0  0  0  0  0  0  0  0  0  0  0
    5.1059    0.9313    0.9204 N   0  0  0  0  0  0  0  0  0  0  0  0
    5.7997    2.0876    1.0609 C   0  0  0  0  0  0  0  0  0  0  0  0
    5.5458    2.8734    0.0399 N   0  0  0  0  0  0  0  0  0  0  0  0
    4.6747    2.2026   -0.7931 N   0  0  0  0  0  0  0  0  0  0  0  0
    4.4050    1.0301   -0.2442 C   0  0  0  0  0  0  0  0  0  0  0  0
    1.3139   -0.2430   -1.0252 H   0  0  0  0  0  0  0  0  0  0  0  0
    1.9286    1.3815   -1.3163 H   0  0  0  0  0  0  0  0  0  0  0  0
    1.7578    0.7826    0.3411 H   0  0  0  0  0  0  0  0  0  0  0  0
    3.7298   -0.2147   -1.7898 H   0  0  0  0  0  0  0  0  0  0  0  0
    2.6504   -3.6245    1.1254 H   0  0  0  0  0  0  0  0  0  0  0  0
    4.1598   -3.9999    0.3051 H   0  0  0  0  0  0  0  0  0  0  0  0
    1.9537   -6.5384   -2.6034 H   0  0  0  0  0  0  0  0  0  0  0  0
    5.1053   -5.0464   -4.0532 H   0  0  0  0  0  0  0  0  0  0  0  0
    5.6277   -7.9657   -6.8421 H   0  0  0  0  0  0  0  0  0  0  0  0
    3.8006   -9.5045   -7.5042 H   0  0  0  0  0  0  0  0  0  0  0  0
    1.5282  -10.3858   -7.1535 H   0  0  0  0  0  0  0  0  0  0  0  0
    0.1437   -9.5330   -5.2837 H   0  0  0  0  0  0  0  0  0  0  0  0
    0.9722   -7.7767   -3.8252 H   0  0  0  0  0  0  0  0  0  0  0  0
    0.4803   -5.4327   -1.5325 H   0  0  0  0  0  0  0  0  0  0  0  0
    0.7120   -3.7078   -1.4151 H   0  0  0  0  0  0  0  0  0  0  0  0
   -0.8853   -4.4182    0.2702 H   0  0  0  0  0  0  0  0  0  0  0  0
    0.5453   -3.9072    1.1379 H   0  0  0  0  0  0  0  0  0  0  0  0
    0.6013   -8.0977    2.3001 H   0  0  0  0  0  0  0  0  0  0  0  0
    2.6202   -9.5251    2.2335 H   0  0  0  0  0  0  0  0  0  0  0  0
    4.5226   -6.7371   -0.4168 H   0  0  0  0  0  0  0  0  0  0  0  0
    4.6565   -2.2791    1.5543 H   0  0  0  0  0  0  0  0  0  0  0  0
    3.2717   -1.3132    2.0154 H   0  0  0  0  0  0  0  0  0  0  0  0
    6.1487   -0.5878    1.7982 H   0  0  0  0  0  0  0  0  0  0  0  0
    4.8758    0.1277    2.7974 H   0  0  0  0  0  0  0  0  0  0  0  0
    6.4549    2.3136    1.8882 H   0  0  0  0  0  0  0  0  0  0  0  0
  1  2  1  0  0  0  0
  1 38  1  0  0  0  0
  1 39  1  0  0  0  0
  1 40  1  0  0  0  0
  2  3  1  0  0  0  0
  2 37  1  0  0  0  0
  2 41  1  0  0  0  0
  3  4  1  0  0  0  0
  3 31  1  0  0  0  0
  4  5  2  0  0  0  0
  4  6  1  0  0  0  0
  6  7  1  0  0  0  0
  6 42  1  0  0  0  0
  6 43  1  0  0  0  0
  7  8  1  0  0  0  0
  7 21  1  0  0  0  0
  7 30  1  0  0  0  0
  8  9  2  0  0  0  0
  8 10  1  0  0  0  0
 10 11  1  0  0  0  0
 10 44  1  0  0  0  0
 11 12  1  0  0  0  0
 11 20  2  0  0  0  0
 12 13  2  0  0  0  0
 12 45  1  0  0  0  0
 13 14  1  0  0  0  0
 14 15  2  0  0  0  0
 14 46  1  0  0  0  0
 15 16  1  0  0  0  0
 15 20  1  0  0  0  0
 16 17  2  0  0  0  0
 16 47  1  0  0  0  0
 17 18  1  0  0  0  0
 17 48  1  0  0  0  0
 18 19  2  0  0  0  0
 18 49  1  0  0  0  0
 19 20  1  0  0  0  0
 19 50  1  0  0  0  0
 21 22  1  0  0  0  0
 21 51  1  0  0  0  0
 21 52  1  0  0  0  0
 22 23  1  0  0  0  0
 22 53  1  0  0  0  0
 22 54  1  0  0  0  0
 23 24  1  0  0  0  0
 24 25  1  0  0  0  0
 24 30  2  0  0  0  0
 25 26  2  0  0  0  0
 25 55  1  0  0  0  0
 26 27  1  0  0  0  0
 26 56  1  0  0  0  0
 27 28  1  0  0  0  0
 27 29  2  0  0  0  0
 29 30  1  0  0  0  0
 29 57  1  0  0  0  0
 31 32  1  0  0  0  0
 31 58  1  0  0  0  0
 31 59  1  0  0  0  0
 32 33  1  0  0  0  0
 32 60  1  0  0  0  0
 32 61  1  0  0  0  0
 33 34  1  0  0  0  0
 33 37  1  0  0  0  0
 34 35  2  0  0  0  0
 34 62  1  0  0  0  0
 35 36  1  0  0  0  0
 36 37  2  0  0  0  0
M  END
$$$$
