
 OpenBabel07202414183D

 31 33  0  0  0  0  0  0  0  0999 V2000
   -1.3591   -5.4856   -1.3108 Cl  0  0  0  0  0  0  0  0  0  0  0  0
    0.0653   -4.6261   -1.7526 C   0  0  0  0  0  0  0  0  0  0  0  0
    0.4808   -4.6072   -3.0779 C   0  0  0  0  0  0  0  0  0  0  0  0
    1.6203   -3.8840   -3.4312 C   0  0  0  0  0  0  0  0  0  0  0  0
    2.3470   -3.1894   -2.4578 C   0  0  0  0  0  0  0  0  0  0  0  0
    1.9536   -3.2257   -1.1129 C   0  0  0  0  0  0  0  0  0  0  0  0
    2.6532   -2.4369   -0.0303 C   0  0  0  0  0  0  0  0  0  0  0  0
    4.1395   -2.1838   -0.2126 C   0  0  0  0  0  0  0  0  0  0  0  0
    4.5473   -1.0824   -0.5677 O   0  0  0  0  0  0  0  0  0  0  0  0
    4.9374   -3.2539    0.1255 N   0  0  0  0  0  0  0  0  0  0  0  0
    6.2816   -3.1386    0.0132 N   0  0  0  0  0  0  0  0  0  0  0  0
    6.9542   -2.6593   -1.0456 N   0  0  0  0  0  0  0  0  0  0  0  0
    8.2498   -2.7130   -0.7612 N   0  0  0  0  0  0  0  0  0  0  0  0
    8.3911   -3.3567    0.4355 C   0  0  0  0  0  0  0  0  0  0  0  0
    9.5481   -3.7151    1.1415 C   0  0  0  0  0  0  0  0  0  0  0  0
    9.4094   -4.4502    2.3269 C   0  0  0  0  0  0  0  0  0  0  0  0
    8.1420   -4.8063    2.8008 C   0  0  0  0  0  0  0  0  0  0  0  0
    6.9754   -4.4216    2.1279 C   0  0  0  0  0  0  0  0  0  0  0  0
    7.1374   -3.6898    0.9410 C   0  0  0  0  0  0  0  0  0  0  0  0
    0.7884   -3.9387   -0.7758 C   0  0  0  0  0  0  0  0  0  0  0  0
   -0.0833   -5.1373   -3.8420 H   0  0  0  0  0  0  0  0  0  0  0  0
    1.9362   -3.8477   -4.4715 H   0  0  0  0  0  0  0  0  0  0  0  0
    3.2101   -2.6032   -2.7740 H   0  0  0  0  0  0  0  0  0  0  0  0
    2.5273   -2.9426    0.9356 H   0  0  0  0  0  0  0  0  0  0  0  0
    2.1572   -1.4619    0.0603 H   0  0  0  0  0  0  0  0  0  0  0  0
    4.5885   -4.1988    0.1068 H   0  0  0  0  0  0  0  0  0  0  0  0
   10.5283   -3.4417    0.7664 H   0  0  0  0  0  0  0  0  0  0  0  0
   10.2969   -4.7520    2.8785 H   0  0  0  0  0  0  0  0  0  0  0  0
    8.0661   -5.3927    3.7155 H   0  0  0  0  0  0  0  0  0  0  0  0
    5.9933   -4.6939    2.5088 H   0  0  0  0  0  0  0  0  0  0  0  0
    0.4280   -3.9420    0.2509 H   0  0  0  0  0  0  0  0  0  0  0  0
  1  2  1  0  0  0  0
  2  3  1  0  0  0  0
  2 20  2  0  0  0  0
  3  4  2  0  0  0  0
  3 21  1  0  0  0  0
  4  5  1  0  0  0  0
  4 22  1  0  0  0  0
  5  6  2  0  0  0  0
  5 23  1  0  0  0  0
  6  7  1  0  0  0  0
  6 20  1  0  0  0  0
  7  8  1  0  0  0  0
  7 24  1  0  0  0  0
  7 25  1  0  0  0  0
  8  9  2  0  0  0  0
  8 10  1  0  0  0  0
 10 11  1  0  0  0  0
 10 26  1  0  0  0  0
 11 12  1  0  0  0  0
 11 19  1  0  0  0  0
 12 13  2  0  0  0  0
 13 14  1  0  0  0  0
 14 15  1  0  0  0  0
 14 19  2  0  0  0  0
 15 16  2  0  0  0  0
 15 27  1  0  0  0  0
 16 17  1  0  0  0  0
 16 28  1  0  0  0  0
 17 18  2  0  0  0  0
 17 29  1  0  0  0  0
 18 19  1  0  0  0  0
 18 30  1  0  0  0  0
 20 31  1  0  0  0  0
M  END
$$$$
