
 OpenBabel07202414123D

 46 48  0  0  1  0  0  0  0  0999 V2000
    1.0237   -0.0634    0.2119 C   0  0  0  0  0  0  0  0  0  0  0  0
    2.5419   -0.2307    0.1095 C   0  0  3  0  0  0  0  0  0  0  0  0
    3.0211   -0.1927   -1.3442 C   0  0  0  0  0  0  0  0  0  0  0  0
    2.4140   -1.2421   -2.1025 O   0  0  0  0  0  0  0  0  0  0  0  0
    2.8639   -1.4098   -3.3876 C   0  0  0  0  0  0  0  0  0  0  0  0
    3.7305   -0.5050   -4.0208 C   0  0  0  0  0  0  0  0  0  0  0  0
    4.2070   -0.7399   -5.3143 C   0  0  0  0  0  0  0  0  0  0  0  0
    3.8089   -1.8788   -5.9923 C   0  0  0  0  0  0  0  0  0  0  0  0
    2.9386   -2.7819   -5.3850 C   0  0  0  0  0  0  0  0  0  0  0  0
    2.4429   -2.5494   -4.0961 C   0  0  0  0  0  0  0  0  0  0  0  0
    1.6203   -3.5481   -3.6412 O   0  0  0  0  0  0  0  0  0  0  0  0
    0.5434   -3.1433   -2.8028 C   0  0  0  0  0  0  0  0  0  0  0  0
    3.2358    0.7991    0.8967 N   0  0  0  0  0  0  0  0  0  0  0  0
    3.5586    0.5628    2.2093 C   0  0  0  0  0  0  0  0  0  0  0  0
    3.4626   -0.5588    2.7028 O   0  0  0  0  0  0  0  0  0  0  0  0
    3.8775    1.7677    3.0528 C   0  0  0  0  0  0  0  0  0  0  0  0
    3.7233    1.4618    4.3560 C   0  0  0  0  0  0  0  0  0  0  0  0
    2.6813    2.2322    5.0868 C   0  0  0  0  0  0  0  0  0  0  0  0
    2.2357    1.8063    6.1511 O   0  0  0  0  0  0  0  0  0  0  0  0
    2.1878    3.3554    4.4981 N   0  0  0  0  0  0  0  0  0  0  0  0
    2.7704    3.9319    3.3672 C   0  0  0  0  0  0  0  0  0  0  0  0
    3.7121    3.1761    2.6493 C   0  0  0  0  0  0  0  0  0  0  0  0
    4.4841    3.8227    1.6826 C   0  0  0  0  0  0  0  0  0  0  0  0
    4.2532    5.1721    1.4148 C   0  0  0  0  0  0  0  0  0  0  0  0
    3.2491    5.8884    2.0571 C   0  0  0  0  0  0  0  0  0  0  0  0
    2.4835    5.2567    3.0391 C   0  0  0  0  0  0  0  0  0  0  0  0
    5.0263    5.8126    0.5251 F   0  0  0  0  0  0  0  0  0  0  0  0
    0.4997   -0.8931   -0.2655 H   0  0  0  0  0  0  0  0  0  0  0  0
    0.6935    0.8673   -0.2664 H   0  0  0  0  0  0  0  0  0  0  0  0
    0.6990   -0.0230    1.2601 H   0  0  0  0  0  0  0  0  0  0  0  0
    2.7804   -1.2197    0.5226 H   0  0  0  0  0  0  0  0  0  0  0  0
    4.1102   -0.3099   -1.3455 H   0  0  0  0  0  0  0  0  0  0  0  0
    2.7563    0.7803   -1.7803 H   0  0  0  0  0  0  0  0  0  0  0  0
    4.0798    0.3977   -3.5297 H   0  0  0  0  0  0  0  0  0  0  0  0
    4.8846   -0.0340   -5.7788 H   0  0  0  0  0  0  0  0  0  0  0  0
    4.1882   -2.0773   -6.9911 H   0  0  0  0  0  0  0  0  0  0  0  0
    2.6349   -3.6813   -5.9198 H   0  0  0  0  0  0  0  0  0  0  0  0
   -0.2276   -3.9216   -2.8616 H   0  0  0  0  0  0  0  0  0  0  0  0
    0.0878   -2.2072   -3.1306 H   0  0  0  0  0  0  0  0  0  0  0  0
    0.8664   -3.0927   -1.7594 H   0  0  0  0  0  0  0  0  0  0  0  0
    3.2351    1.7446    0.5427 H   0  0  0  0  0  0  0  0  0  0  0  0
    3.8518    0.4601    4.7556 H   0  0  0  0  0  0  0  0  0  0  0  0
    1.4699    3.8359    5.0210 H   0  0  0  0  0  0  0  0  0  0  0  0
    5.2955    3.3198    1.1669 H   0  0  0  0  0  0  0  0  0  0  0  0
    3.0891    6.9339    1.8361 H   0  0  0  0  0  0  0  0  0  0  0  0
    1.7317    5.8164    3.5925 H   0  0  0  0  0  0  0  0  0  0  0  0
  1  2  1  0  0  0  0
  1 28  1  0  0  0  0
  1 29  1  0  0  0  0
  1 30  1  0  0  0  0
  2  3  1  0  0  0  0
  2 13  1  0  0  0  0
  2 31  1  0  0  0  0
  3  4  1  0  0  0  0
  3 32  1  0  0  0  0
  3 33  1  0  0  0  0
  4  5  1  0  0  0  0
  5  6  1  0  0  0  0
  5 10  2  0  0  0  0
  6  7  2  0  0  0  0
  6 34  1  0  0  0  0
  7  8  1  0  0  0  0
  7 35  1  0  0  0  0
  8  9  2  0  0  0  0
  8 36  1  0  0  0  0
  9 10  1  0  0  0  0
  9 37  1  0  0  0  0
 10 11  1  0  0  0  0
 11 12  1  0  0  0  0
 12 38  1  0  0  0  0
 12 39  1  0  0  0  0
 12 40  1  0  0  0  0
 13 14  1  0  0  0  0
 13 41  1  0  0  0  0
 14 15  2  0  0  0  0
 14 16  1  0  0  0  0
 16 17  2  0  0  0  0
 16 22  1  0  0  0  0
 17 18  1  0  0  0  0
 17 42  1  0  0  0  0
 18 19  2  0  0  0  0
 18 20  1  0  0  0  0
 20 21  1  0  0  0  0
 20 43  1  0  0  0  0
 21 22  1  0  0  0  0
 21 26  2  0  0  0  0
 22 23  2  0  0  0  0
 23 24  1  0  0  0  0
 23 44  1  0  0  0  0
 24 25  2  0  0  0  0
 24 27  1  0  0  0  0
 25 26  1  0  0  0  0
 25 45  1  0  0  0  0
 26 46  1  0  0  0  0
M  END
$$$$
