
 OpenBabel07202414113D

 73 77  0  0  0  0  0  0  0  0999 V2000
    2.6887    1.7099   -1.4820 C   0  0  0  0  0  0  0  0  0  0  0  0
    3.1188    0.8465   -0.5366 C   0  0  0  0  0  0  0  0  0  0  0  0
    2.8856    1.0183    0.9537 C   0  0  0  0  0  0  0  0  0  0  0  0
    2.0636    2.2069    1.3073 N   0  0  0  0  0  0  0  0  0  0  0  0
    0.6207    2.1300    1.0901 C   0  0  0  0  0  0  0  0  0  0  0  0
    2.5523    3.1984    2.1545 C   0  0  0  0  0  0  0  0  0  0  0  0
    3.8340    3.7336    1.9429 C   0  0  0  0  0  0  0  0  0  0  0  0
    4.3250    4.7963    2.7077 C   0  0  0  0  0  0  0  0  0  0  0  0
    3.5655    5.3500    3.7357 C   0  0  0  0  0  0  0  0  0  0  0  0
    2.2974    4.8357    4.0129 C   0  0  0  0  0  0  0  0  0  0  0  0
    1.5815    5.3479    5.1470 N   0  0  0  0  0  0  0  0  0  0  0  0
    0.7441    6.5394    4.9346 C   0  0  0  0  0  0  0  0  0  0  0  0
    1.4013    7.8970    5.1337 C   0  0  0  0  0  0  0  0  0  0  0  0
    0.8648    9.0047    4.4484 C   0  0  0  0  0  0  0  0  0  0  0  0
    1.4176   10.2820    4.5839 C   0  0  0  0  0  0  0  0  0  0  0  0
    2.4990   10.4862    5.4348 C   0  0  0  0  0  0  0  0  0  0  0  0
    3.0088    9.4129    6.1590 C   0  0  0  0  0  0  0  0  0  0  0  0
    4.3192    9.6696    7.2458 Cl  0  0  0  0  0  0  0  0  0  0  0  0
    2.4663    8.1296    6.0178 C   0  0  0  0  0  0  0  0  0  0  0  0
    1.5890    4.6001    6.3315 C   0  0  0  0  0  0  0  0  0  0  0  0
    2.1114    3.4832    6.4102 O   0  0  0  0  0  0  0  0  0  0  0  0
    0.9930    5.2230    7.5953 C   0  0  0  0  0  0  0  0  0  0  0  0
   -0.3570    4.7253    8.0726 C   0  0  0  0  0  0  0  0  0  0  0  0
   -0.9728    3.6147    7.4993 C   0  0  0  0  0  0  0  0  0  0  0  0
   -2.1230    3.0629    7.9454 N   0  0  0  0  0  0  0  0  0  0  0  0
   -2.7165    3.6619    8.9996 C   0  0  0  0  0  0  0  0  0  0  0  0
   -2.2552    4.8255    9.6094 C   0  0  0  0  0  0  0  0  0  0  0  0
   -2.9918    5.4630   10.6274 C   0  0  0  0  0  0  0  0  0  0  0  0
   -2.5177    6.6302   11.2209 C   0  0  0  0  0  0  0  0  0  0  0  0
   -1.2800    7.1349   10.8461 C   0  0  0  0  0  0  0  0  0  0  0  0
   -0.5382    6.5009    9.8440 C   0  0  0  0  0  0  0  0  0  0  0  0
   -1.0246    5.3571    9.1650 C   0  0  0  0  0  0  0  0  0  0  0  0
    1.8001    3.7765    3.2214 C   0  0  0  0  0  0  0  0  0  0  0  0
    3.8239   -0.3683   -1.1200 C   0  0  0  0  0  0  0  0  0  0  0  0
    3.6631   -0.6205   -2.3150 O   0  0  0  0  0  0  0  0  0  0  0  0
    4.5924   -1.1534   -0.2774 N   0  0  0  0  0  0  0  0  0  0  0  0
    5.3656   -2.2814   -0.6992 C   0  0  0  0  0  0  0  0  0  0  0  0
    5.7271   -2.5227   -2.0323 C   0  0  0  0  0  0  0  0  0  0  0  0
    6.4287   -3.6723   -2.4070 C   0  0  0  0  0  0  0  0  0  0  0  0
    6.7953   -4.6067   -1.4454 C   0  0  0  0  0  0  0  0  0  0  0  0
    6.4900   -4.3682   -0.1078 C   0  0  0  0  0  0  0  0  0  0  0  0
    5.7944   -3.2069    0.2692 C   0  0  0  0  0  0  0  0  0  0  0  0
    2.1402    2.6054   -1.2398 H   0  0  0  0  0  0  0  0  0  0  0  0
    2.8523    1.5289   -2.5462 H   0  0  0  0  0  0  0  0  0  0  0  0
    3.8523    1.0437    1.4678 H   0  0  0  0  0  0  0  0  0  0  0  0
    2.3635    0.1246    1.3230 H   0  0  0  0  0  0  0  0  0  0  0  0
    0.3734    1.4332    0.2815 H   0  0  0  0  0  0  0  0  0  0  0  0
    0.2330    3.1108    0.7848 H   0  0  0  0  0  0  0  0  0  0  0  0
    0.0920    1.7957    1.9863 H   0  0  0  0  0  0  0  0  0  0  0  0
    4.4478    3.3530    1.1316 H   0  0  0  0  0  0  0  0  0  0  0  0
    5.3181    5.1903    2.4964 H   0  0  0  0  0  0  0  0  0  0  0  0
    3.9813    6.1592    4.3294 H   0  0  0  0  0  0  0  0  0  0  0  0
   -0.1269    6.4881    5.5995 H   0  0  0  0  0  0  0  0  0  0  0  0
    0.3464    6.4816    3.9138 H   0  0  0  0  0  0  0  0  0  0  0  0
    0.0053    8.8793    3.7908 H   0  0  0  0  0  0  0  0  0  0  0  0
    1.0008   11.1183    4.0250 H   0  0  0  0  0  0  0  0  0  0  0  0
    2.9380   11.4771    5.5267 H   0  0  0  0  0  0  0  0  0  0  0  0
    2.8930    7.3192    6.6022 H   0  0  0  0  0  0  0  0  0  0  0  0
    0.9646    6.3092    7.5029 H   0  0  0  0  0  0  0  0  0  0  0  0
    1.7165    5.0123    8.3960 H   0  0  0  0  0  0  0  0  0  0  0  0
   -0.5549    3.1026    6.6367 H   0  0  0  0  0  0  0  0  0  0  0  0
   -3.6124    3.1577    9.3557 H   0  0  0  0  0  0  0  0  0  0  0  0
   -3.9542    5.0630   10.9455 H   0  0  0  0  0  0  0  0  0  0  0  0
   -3.1102    7.1399   11.9766 H   0  0  0  0  0  0  0  0  0  0  0  0
   -0.8903    8.0300   11.3254 H   0  0  0  0  0  0  0  0  0  0  0  0
    0.4292    6.9305    9.5957 H   0  0  0  0  0  0  0  0  0  0  0  0
    0.8178    3.3814    3.4596 H   0  0  0  0  0  0  0  0  0  0  0  0
    4.5547   -0.9992    0.7190 H   0  0  0  0  0  0  0  0  0  0  0  0
    5.4855   -1.8126   -2.8212 H   0  0  0  0  0  0  0  0  0  0  0  0
    6.6771   -3.8365   -3.4507 H   0  0  0  0  0  0  0  0  0  0  0  0
    7.3151   -5.5146   -1.7415 H   0  0  0  0  0  0  0  0  0  0  0  0
    6.7763   -5.0996    0.6454 H   0  0  0  0  0  0  0  0  0  0  0  0
    5.5608   -3.0642    1.3177 H   0  0  0  0  0  0  0  0  0  0  0  0
  1  2  2  0  0  0  0
  1 43  1  0  0  0  0
  1 44  1  0  0  0  0
  2  3  1  0  0  0  0
  2 34  1  0  0  0  0
  3  4  1  0  0  0  0
  3 45  1  0  0  0  0
  3 46  1  0  0  0  0
  4  5  1  0  0  0  0
  4  6  1  0  0  0  0
  5 47  1  0  0  0  0
  5 48  1  0  0  0  0
  5 49  1  0  0  0  0
  6  7  1  0  0  0  0
  6 33  2  0  0  0  0
  7  8  2  0  0  0  0
  7 50  1  0  0  0  0
  8  9  1  0  0  0  0
  8 51  1  0  0  0  0
  9 10  2  0  0  0  0
  9 52  1  0  0  0  0
 10 11  1  0  0  0  0
 10 33  1  0  0  0  0
 11 12  1  0  0  0  0
 11 20  1  0  0  0  0
 12 13  1  0  0  0  0
 12 53  1  0  0  0  0
 12 54  1  0  0  0  0
 13 14  1  0  0  0  0
 13 19  2  0  0  0  0
 14 15  2  0  0  0  0
 14 55  1  0  0  0  0
 15 16  1  0  0  0  0
 15 56  1  0  0  0  0
 16 17  2  0  0  0  0
 16 57  1  0  0  0  0
 17 18  1  0  0  0  0
 17 19  1  0  0  0  0
 19 58  1  0  0  0  0
 20 21  2  0  0  0  0
 20 22  1  0  0  0  0
 22 23  1  0  0  0  0
 22 59  1  0  0  0  0
 22 60  1  0  0  0  0
 23 24  1  0  0  0  0
 23 32  2  0  0  0  0
 24 25  2  0  0  0  0
 24 61  1  0  0  0  0
 25 26  1  0  0  0  0
 26 27  2  0  0  0  0
 26 62  1  0  0  0  0
 27 28  1  0  0  0  0
 27 32  1  0  0  0  0
 28 29  2  0  0  0  0
 28 63  1  0  0  0  0
 29 30  1  0  0  0  0
 29 64  1  0  0  0  0
 30 31  2  0  0  0  0
 30 65  1  0  0  0  0
 31 32  1  0  0  0  0
 31 66  1  0  0  0  0
 33 67  1  0  0  0  0
 34 35  2  0  0  0  0
 34 36  1  0  0  0  0
 36 37  1  0  0  0  0
 36 68  1  0  0  0  0
 37 38  1  0  0  0  0
 37 42  2  0  0  0  0
 38 39  2  0  0  0  0
 38 69  1  0  0  0  0
 39 40  1  0  0  0  0
 39 70  1  0  0  0  0
 40 41  2  0  0  0  0
 40 71  1  0  0  0  0
 41 42  1  0  0  0  0
 41 72  1  0  0  0  0
 42 73  1  0  0  0  0
M  END
$$$$
