
 OpenBabel07202414143D

 54 58  0  0  1  0  0  0  0  0999 V2000
    1.1517    1.0024   -0.5724 C   0  0  0  0  0  0  0  0  0  0  0  0
    2.5527    0.6825   -0.5181 N   0  0  0  0  0  0  0  0  0  0  0  0
    3.0314   -0.5203   -0.9973 C   0  0  0  0  0  0  0  0  0  0  0  0
    2.2953   -1.4015   -1.4363 O   0  0  0  0  0  0  0  0  0  0  0  0
    4.5670   -0.6332   -0.9802 C   0  0  0  0  0  0  0  0  0  0  0  0
    5.1169   -0.7095   -2.3399 N   0  0  0  0  0  0  0  0  0  0  0  0
    6.5635   -0.9307   -2.3657 C   0  0  0  0  0  0  0  0  0  0  0  0
    7.4233    0.3157   -2.4476 C   0  0  0  0  0  0  0  0  0  0  0  0
    8.7905    0.2093   -2.1307 C   0  0  0  0  0  0  0  0  0  0  0  0
    9.6463    1.3075   -2.2462 C   0  0  0  0  0  0  0  0  0  0  0  0
    9.1455    2.5225   -2.6874 C   0  0  0  0  0  0  0  0  0  0  0  0
   10.1783    3.8911   -2.8219 Cl  0  0  0  0  0  0  0  0  0  0  0  0
    7.8040    2.6452   -3.0191 C   0  0  0  0  0  0  0  0  0  0  0  0
    6.9193    1.5493   -2.9116 C   0  0  0  0  0  0  0  0  0  0  0  0
    5.4203    1.7153   -3.2067 C   0  0  3  0  0  0  0  0  0  0  0  0
    5.1470    2.4366   -4.5495 C   0  0  0  0  0  0  0  0  0  0  0  0
    4.5925    3.8014   -4.1924 C   0  0  0  0  0  0  0  0  0  0  0  0
    4.8746    3.9893   -2.7949 N   0  0  0  0  0  0  0  0  0  0  0  0
    4.6926    5.2532   -2.1512 C   0  0  0  0  0  0  0  0  0  0  0  0
    4.0629    5.3356   -0.9065 C   0  0  0  0  0  0  0  0  0  0  0  0
    3.6954    6.4875   -0.2973 N   0  0  0  0  0  0  0  0  0  0  0  0
    4.0240    7.6328   -0.9228 C   0  0  0  0  0  0  0  0  0  0  0  0
    4.7756    7.7026   -2.0906 C   0  0  0  0  0  0  0  0  0  0  0  0
    5.1856    8.9544   -2.5947 C   0  0  0  0  0  0  0  0  0  0  0  0
    6.0043    9.0367   -3.7154 C   0  0  0  0  0  0  0  0  0  0  0  0
    6.4177    7.8677   -4.3241 C   0  0  0  0  0  0  0  0  0  0  0  0
    7.2292    7.9274   -5.3880 F   0  0  0  0  0  0  0  0  0  0  0  0
    6.0207    6.6226   -3.8366 C   0  0  0  0  0  0  0  0  0  0  0  0
    5.1479    6.4882   -2.7237 C   0  0  0  0  0  0  0  0  0  0  0  0
    4.8643    2.7212   -2.1735 C   0  0  0  0  0  0  0  0  0  0  0  0
    4.6131    2.4723   -1.0048 O   0  0  0  0  0  0  0  0  0  0  0  0
    4.7040    0.3428   -3.2663 C   0  0  0  0  0  0  0  0  0  0  0  0
    0.9862    1.9433   -0.0424 H   0  0  0  0  0  0  0  0  0  0  0  0
    0.5712    0.2019   -0.1072 H   0  0  0  0  0  0  0  0  0  0  0  0
    0.8478    1.1077   -1.6192 H   0  0  0  0  0  0  0  0  0  0  0  0
    3.2253    1.4407   -0.3954 H   0  0  0  0  0  0  0  0  0  0  0  0
    4.7829   -1.5647   -0.4414 H   0  0  0  0  0  0  0  0  0  0  0  0
    5.0184    0.1741   -0.3982 H   0  0  0  0  0  0  0  0  0  0  0  0
    6.7968   -1.5376   -3.2500 H   0  0  0  0  0  0  0  0  0  0  0  0
    6.8719   -1.5344   -1.5002 H   0  0  0  0  0  0  0  0  0  0  0  0
    9.2026   -0.7410   -1.7966 H   0  0  0  0  0  0  0  0  0  0  0  0
   10.6975    1.2062   -1.9912 H   0  0  0  0  0  0  0  0  0  0  0  0
    7.4404    3.6155   -3.3452 H   0  0  0  0  0  0  0  0  0  0  0  0
    4.4058    1.9170   -5.1691 H   0  0  0  0  0  0  0  0  0  0  0  0
    6.0480    2.5247   -5.1663 H   0  0  0  0  0  0  0  0  0  0  0  0
    3.4995    3.7974   -4.2998 H   0  0  0  0  0  0  0  0  0  0  0  0
    4.9799    4.5627   -4.8609 H   0  0  0  0  0  0  0  0  0  0  0  0
    3.7764    4.4584   -0.3378 H   0  0  0  0  0  0  0  0  0  0  0  0
    3.6777    8.5317   -0.4182 H   0  0  0  0  0  0  0  0  0  0  0  0
    4.8959    9.8752   -2.0909 H   0  0  0  0  0  0  0  0  0  0  0  0
    6.3461    9.9953   -4.0920 H   0  0  0  0  0  0  0  0  0  0  0  0
    6.4662    5.7617   -4.3208 H   0  0  0  0  0  0  0  0  0  0  0  0
    4.8976   -0.0841   -4.2618 H   0  0  0  0  0  0  0  0  0  0  0  0
    3.6169    0.4840   -3.2509 H   0  0  0  0  0  0  0  0  0  0  0  0
  1  2  1  0  0  0  0
  1 33  1  0  0  0  0
  1 34  1  0  0  0  0
  1 35  1  0  0  0  0
  2  3  1  0  0  0  0
  2 36  1  0  0  0  0
  3  4  2  0  0  0  0
  3  5  1  0  0  0  0
  5  6  1  0  0  0  0
  5 37  1  0  0  0  0
  5 38  1  0  0  0  0
  6  7  1  0  0  0  0
  6 32  1  0  0  0  0
  7  8  1  0  0  0  0
  7 39  1  0  0  0  0
  7 40  1  0  0  0  0
  8  9  1  0  0  0  0
  8 14  2  0  0  0  0
  9 10  2  0  0  0  0
  9 41  1  0  0  0  0
 10 11  1  0  0  0  0
 10 42  1  0  0  0  0
 11 12  1  0  0  0  0
 11 13  2  0  0  0  0
 13 14  1  0  0  0  0
 13 43  1  0  0  0  0
 14 15  1  0  0  0  0
 15 16  1  0  0  0  0
 15 30  1  0  0  0  0
 15 32  1  0  0  0  0
 16 17  1  0  0  0  0
 16 44  1  0  0  0  0
 16 45  1  0  0  0  0
 17 18  1  0  0  0  0
 17 46  1  0  0  0  0
 17 47  1  0  0  0  0
 18 19  1  0  0  0  0
 18 30  1  0  0  0  0
 19 20  1  0  0  0  0
 19 29  2  0  0  0  0
 20 21  2  0  0  0  0
 20 48  1  0  0  0  0
 21 22  1  0  0  0  0
 22 23  2  0  0  0  0
 22 49  1  0  0  0  0
 23 24  1  0  0  0  0
 23 29  1  0  0  0  0
 24 25  2  0  0  0  0
 24 50  1  0  0  0  0
 25 26  1  0  0  0  0
 25 51  1  0  0  0  0
 26 27  1  0  0  0  0
 26 28  2  0  0  0  0
 28 29  1  0  0  0  0
 28 52  1  0  0  0  0
 30 31  2  0  0  0  0
 32 53  1  0  0  0  0
 32 54  1  0  0  0  0
M  END
$$$$
