
 OpenBabel07202414123D

 75 78  0  0  1  0  0  0  0  0999 V2000
    0.7024    0.2028    0.3671 C   0  0  0  0  0  0  0  0  0  0  0  0
    2.2443    0.2060    0.2467 C   0  0  0  0  0  0  0  0  0  0  0  0
    2.8317    1.0901    1.3647 C   0  0  0  0  0  0  0  0  0  0  0  0
    2.7087   -1.2468    0.4900 C   0  0  0  0  0  0  0  0  0  0  0  0
    2.6963    0.7503   -1.1167 C   0  0  0  0  0  0  0  0  0  0  0  0
    2.0146    1.7986   -1.7379 C   0  0  0  0  0  0  0  0  0  0  0  0
    2.4310    2.3161   -2.9722 C   0  0  0  0  0  0  0  0  0  0  0  0
    3.5746    1.8559   -3.6409 C   0  0  0  0  0  0  0  0  0  0  0  0
    4.0616    2.4893   -4.8678 N   0  0  0  0  0  0  0  0  0  0  0  0
    5.0275    1.7808   -5.7745 C   0  0  3  0  0  0  0  0  0  0  0  0
    6.5271    2.0796   -5.4245 C   0  0  0  0  0  0  0  0  0  0  0  0
    7.3830    2.2202   -6.3015 O   0  0  0  0  0  0  0  0  0  0  0  0
    6.8864    1.9637   -4.0961 N   0  0  0  0  0  0  0  0  0  0  0  0
    8.2714    2.0668   -3.6696 C   0  0  0  0  0  0  0  0  0  0  0  0
    8.4462    1.6475   -2.2077 C   0  0  0  0  0  0  0  0  0  0  0  0
    9.8458    1.9070   -1.7120 C   0  0  0  0  0  0  0  0  0  0  0  0
   10.8328    0.9132   -1.7900 C   0  0  0  0  0  0  0  0  0  0  0  0
   12.1398    1.1751   -1.3673 C   0  0  0  0  0  0  0  0  0  0  0  0
   12.4719    2.4326   -0.8665 C   0  0  0  0  0  0  0  0  0  0  0  0
   11.4933    3.4148   -0.7841 C   0  0  0  0  0  0  0  0  0  0  0  0
   11.8099    4.6242   -0.3034 F   0  0  0  0  0  0  0  0  0  0  0  0
   10.1891    3.1652   -1.1993 C   0  0  0  0  0  0  0  0  0  0  0  0
    4.7673    0.2963   -6.0747 C   0  0  0  0  0  0  0  0  0  0  0  0
    3.4776   -0.2549   -6.1000 C   0  0  0  0  0  0  0  0  0  0  0  0
    3.2871   -1.5881   -6.4622 C   0  0  0  0  0  0  0  0  0  0  0  0
    4.3912   -2.3367   -6.8244 C   0  0  0  0  0  0  0  0  0  0  0  0
    5.6468   -1.8514   -6.8276 N   0  0  0  0  0  0  0  0  0  0  0  0
    5.8052   -0.5562   -6.4655 C   0  0  0  0  0  0  0  0  0  0  0  0
    3.6475    3.8290   -5.1744 C   0  0  0  0  0  0  0  0  0  0  0  0
    2.8941    4.4911   -4.4629 O   0  0  0  0  0  0  0  0  0  0  0  0
    4.1330    4.5164   -6.3734 C   0  0  0  0  0  0  0  0  0  0  0  0
    3.4243    5.4982   -7.0354 C   0  0  0  0  0  0  0  0  0  0  0  0
    4.2091    6.0180   -8.0126 O   0  0  0  0  0  0  0  0  0  0  0  0
    5.3967    5.3608   -7.8662 C   0  0  0  0  0  0  0  0  0  0  0  0
    6.4957    5.7952   -8.7354 C   0  0  0  0  0  0  0  0  0  0  0  0
    7.4432    7.0158   -7.8564 S   0  0  0  0  0  0  0  0  0  0  0  0
    8.0617    6.1726   -6.4062 C   0  0  0  0  0  0  0  0  0  0  0  0
    8.5922    7.3352   -8.6795 O   0  0  0  0  0  0  0  0  0  0  0  0
    6.5650    8.0815   -7.4052 O   0  0  0  0  0  0  0  0  0  0  0  0
    5.3938    4.4308   -6.9304 N   0  0  0  0  0  0  0  0  0  0  0  0
    4.2113    0.7605   -3.0449 C   0  0  0  0  0  0  0  0  0  0  0  0
    3.8034    0.2409   -1.8031 C   0  0  0  0  0  0  0  0  0  0  0  0
    0.3770   -0.2668    1.3018 H   0  0  0  0  0  0  0  0  0  0  0  0
    0.2461   -0.3495   -0.4630 H   0  0  0  0  0  0  0  0  0  0  0  0
    0.2810    1.2140    0.3674 H   0  0  0  0  0  0  0  0  0  0  0  0
    2.5356    0.7204    2.3539 H   0  0  0  0  0  0  0  0  0  0  0  0
    2.4898    2.1285    1.2858 H   0  0  0  0  0  0  0  0  0  0  0  0
    3.9277    1.1015    1.3318 H   0  0  0  0  0  0  0  0  0  0  0  0
    2.3374   -1.6240    1.4497 H   0  0  0  0  0  0  0  0  0  0  0  0
    3.8003   -1.3310    0.5261 H   0  0  0  0  0  0  0  0  0  0  0  0
    2.3411   -1.9158   -0.2967 H   0  0  0  0  0  0  0  0  0  0  0  0
    1.1366    2.2534   -1.2853 H   0  0  0  0  0  0  0  0  0  0  0  0
    1.7834    3.0854   -3.3811 H   0  0  0  0  0  0  0  0  0  0  0  0
    4.8824    2.2072   -6.7715 H   0  0  0  0  0  0  0  0  0  0  0  0
    6.1725    2.1625   -3.4071 H   0  0  0  0  0  0  0  0  0  0  0  0
    8.5794    3.1060   -3.8269 H   0  0  0  0  0  0  0  0  0  0  0  0
    8.8898    1.4392   -4.3244 H   0  0  0  0  0  0  0  0  0  0  0  0
    8.1960    0.5855   -2.0843 H   0  0  0  0  0  0  0  0  0  0  0  0
    7.7331    2.1896   -1.5730 H   0  0  0  0  0  0  0  0  0  0  0  0
   10.5930   -0.0730   -2.1838 H   0  0  0  0  0  0  0  0  0  0  0  0
   12.8991    0.3997   -1.4336 H   0  0  0  0  0  0  0  0  0  0  0  0
   13.4839    2.6536   -0.5429 H   0  0  0  0  0  0  0  0  0  0  0  0
    9.4540    3.9609   -1.1211 H   0  0  0  0  0  0  0  0  0  0  0  0
    2.6071    0.3392   -5.8324 H   0  0  0  0  0  0  0  0  0  0  0  0
    2.2967   -2.0294   -6.4721 H   0  0  0  0  0  0  0  0  0  0  0  0
    4.2930   -3.3713   -7.1405 H   0  0  0  0  0  0  0  0  0  0  0  0
    6.8407   -0.2275   -6.5222 H   0  0  0  0  0  0  0  0  0  0  0  0
    2.4424    5.9350   -6.9172 H   0  0  0  0  0  0  0  0  0  0  0  0
    6.1332    6.2672   -9.6540 H   0  0  0  0  0  0  0  0  0  0  0  0
    7.1638    4.9713   -8.9985 H   0  0  0  0  0  0  0  0  0  0  0  0
    8.6092    5.2867   -6.7275 H   0  0  0  0  0  0  0  0  0  0  0  0
    7.2331    5.9146   -5.7490 H   0  0  0  0  0  0  0  0  0  0  0  0
    8.7346    6.8602   -5.8871 H   0  0  0  0  0  0  0  0  0  0  0  0
    5.0667    0.2666   -3.4931 H   0  0  0  0  0  0  0  0  0  0  0  0
    4.3919   -0.5763   -1.3938 H   0  0  0  0  0  0  0  0  0  0  0  0
  1  2  1  0  0  0  0
  1 43  1  0  0  0  0
  1 44  1  0  0  0  0
  1 45  1  0  0  0  0
  2  3  1  0  0  0  0
  2  4  1  0  0  0  0
  2  5  1  0  0  0  0
  3 46  1  0  0  0  0
  3 47  1  0  0  0  0
  3 48  1  0  0  0  0
  4 49  1  0  0  0  0
  4 50  1  0  0  0  0
  4 51  1  0  0  0  0
  5  6  1  0  0  0  0
  5 42  2  0  0  0  0
  6  7  2  0  0  0  0
  6 52  1  0  0  0  0
  7  8  1  0  0  0  0
  7 53  1  0  0  0  0
  8  9  1  0  0  0  0
  8 41  2  0  0  0  0
  9 10  1  0  0  0  0
  9 29  1  0  0  0  0
 10 11  1  0  0  0  0
 10 23  1  0  0  0  0
 10 54  1  0  0  0  0
 11 12  2  0  0  0  0
 11 13  1  0  0  0  0
 13 14  1  0  0  0  0
 13 55  1  0  0  0  0
 14 15  1  0  0  0  0
 14 56  1  0  0  0  0
 14 57  1  0  0  0  0
 15 16  1  0  0  0  0
 15 58  1  0  0  0  0
 15 59  1  0  0  0  0
 16 17  1  0  0  0  0
 16 22  2  0  0  0  0
 17 18  2  0  0  0  0
 17 60  1  0  0  0  0
 18 19  1  0  0  0  0
 18 61  1  0  0  0  0
 19 20  2  0  0  0  0
 19 62  1  0  0  0  0
 20 21  1  0  0  0  0
 20 22  1  0  0  0  0
 22 63  1  0  0  0  0
 23 24  1  0  0  0  0
 23 28  2  0  0  0  0
 24 25  2  0  0  0  0
 24 64  1  0  0  0  0
 25 26  1  0  0  0  0
 25 65  1  0  0  0  0
 26 27  2  0  0  0  0
 26 66  1  0  0  0  0
 27 28  1  0  0  0  0
 28 67  1  0  0  0  0
 29 30  2  0  0  0  0
 29 31  1  0  0  0  0
 31 32  2  0  0  0  0
 31 40  1  0  0  0  0
 32 33  1  0  0  0  0
 32 68  1  0  0  0  0
 33 34  1  0  0  0  0
 34 35  1  0  0  0  0
 34 40  2  0  0  0  0
 35 36  1  0  0  0  0
 35 69  1  0  0  0  0
 35 70  1  0  0  0  0
 36 37  1  0  0  0  0
 36 38  2  0  0  0  0
 36 39  2  0  0  0  0
 37 71  1  0  0  0  0
 37 72  1  0  0  0  0
 37 73  1  0  0  0  0
 41 42  1  0  0  0  0
 41 74  1  0  0  0  0
 42 75  1  0  0  0  0
M  END
$$$$
