
 OpenBabel07202414143D

 41 42  0  0  1  0  0  0  0  0999 V2000
    7.6716    1.2070    0.5295 C   0  0  0  0  0  0  0  0  0  0  0  0
    6.3800    0.6061    0.5729 O   0  0  0  0  0  0  0  0  0  0  0  0
    5.8906    0.0680   -0.5820 C   0  0  0  0  0  0  0  0  0  0  0  0
    6.3967    0.2562   -1.6822 O   0  0  0  0  0  0  0  0  0  0  0  0
    4.7250   -0.9559   -0.2400 C   0  0  3  0  0  0  0  0  0  0  0  0
    3.3893   -0.5804   -0.9167 C   0  0  0  0  0  0  0  0  0  0  0  0
    3.3822    0.2338   -2.0730 C   0  0  0  0  0  0  0  0  0  0  0  0
    2.2472    0.9794   -2.4202 C   0  0  0  0  0  0  0  0  0  0  0  0
    1.0782    0.8673   -1.6783 C   0  0  0  0  0  0  0  0  0  0  0  0
    1.0266   -0.0409   -0.6295 C   0  0  0  0  0  0  0  0  0  0  0  0
    2.1654   -0.7708   -0.2621 C   0  0  0  0  0  0  0  0  0  0  0  0
    1.9765   -1.7907    1.1173 Cl  0  0  0  0  0  0  0  0  0  0  0  0
    5.3523   -2.3127   -0.2350 N   0  0  0  0  0  0  0  0  0  0  0  0
    4.6224   -3.5717   -0.4142 C   0  0  0  0  0  0  0  0  0  0  0  0
    4.3016   -4.4671    0.8227 C   0  0  0  0  0  0  0  0  0  0  0  0
    5.1595   -4.2725    2.0833 C   0  0  3  0  0  0  0  0  0  0  0  0
    5.5261   -2.8139    2.1580 C   0  0  0  0  0  0  0  0  0  0  0  0
    4.9413   -2.0916    3.1441 C   0  0  0  0  0  0  0  0  0  0  0  0
    4.6475   -0.6504    3.3412 C   0  0  0  0  0  0  0  0  0  0  0  0
    5.0584    0.3335    2.7669 O   0  0  0  0  0  0  0  0  0  0  0  0
    3.6330   -0.5680    4.2318 O   0  0  0  0  0  0  0  0  0  0  0  0
    6.2664   -2.4016    0.9115 C   0  0  0  0  0  0  0  0  0  0  0  0
    6.5986   -5.3723    2.2886 S   0  0  0  0  0  0  0  0  0  0  0  0
    7.8371    1.6947    1.4962 H   0  0  0  0  0  0  0  0  0  0  0  0
    7.7271    1.9595   -0.2558 H   0  0  0  0  0  0  0  0  0  0  0  0
    8.4416    0.4411    0.4012 H   0  0  0  0  0  0  0  0  0  0  0  0
    4.4727   -0.7201    0.7918 H   0  0  0  0  0  0  0  0  0  0  0  0
    4.2811    0.4064   -2.6639 H   0  0  0  0  0  0  0  0  0  0  0  0
    2.2973    1.6930   -3.2402 H   0  0  0  0  0  0  0  0  0  0  0  0
    0.2166    1.4892   -1.9071 H   0  0  0  0  0  0  0  0  0  0  0  0
    0.1057   -0.1386   -0.0578 H   0  0  0  0  0  0  0  0  0  0  0  0
    5.2742   -4.1955   -1.0431 H   0  0  0  0  0  0  0  0  0  0  0  0
    3.7183   -3.4433   -1.0196 H   0  0  0  0  0  0  0  0  0  0  0  0
    4.2983   -5.5251    0.5306 H   0  0  0  0  0  0  0  0  0  0  0  0
    3.2679   -4.2525    1.1165 H   0  0  0  0  0  0  0  0  0  0  0  0
    4.5325   -4.5501    2.9390 H   0  0  0  0  0  0  0  0  0  0  0  0
    4.4228   -2.6681    3.9102 H   0  0  0  0  0  0  0  0  0  0  0  0
    3.3300    0.3626    4.1900 H   0  0  0  0  0  0  0  0  0  0  0  0
    7.0224   -3.1456    0.6378 H   0  0  0  0  0  0  0  0  0  0  0  0
    6.8937   -1.5309    1.0877 H   0  0  0  0  0  0  0  0  0  0  0  0
    7.2214   -5.1124    1.1330 H   0  0  0  0  0  0  0  0  0  0  0  0
  1  2  1  0  0  0  0
  1 24  1  0  0  0  0
  1 25  1  0  0  0  0
  1 26  1  0  0  0  0
  2  3  1  0  0  0  0
  3  4  2  0  0  0  0
  3  5  1  0  0  0  0
  5  6  1  0  0  0  0
  5 13  1  0  0  0  0
  5 27  1  0  0  0  0
  6  7  1  0  0  0  0
  6 11  2  0  0  0  0
  7  8  2  0  0  0  0
  7 28  1  0  0  0  0
  8  9  1  0  0  0  0
  8 29  1  0  0  0  0
  9 10  2  0  0  0  0
  9 30  1  0  0  0  0
 10 11  1  0  0  0  0
 10 31  1  0  0  0  0
 11 12  1  0  0  0  0
 13 14  1  0  0  0  0
 13 22  1  0  0  0  0
 14 15  1  0  0  0  0
 14 32  1  0  0  0  0
 14 33  1  0  0  0  0
 15 16  1  0  0  0  0
 15 34  1  0  0  0  0
 15 35  1  0  0  0  0
 16 17  1  0  0  0  0
 16 23  1  0  0  0  0
 16 36  1  0  0  0  0
 17 18  2  0  0  0  0
 17 22  1  0  0  0  0
 18 19  1  0  0  0  0
 18 37  1  0  0  0  0
 19 20  2  0  0  0  0
 19 21  1  0  0  0  0
 21 38  1  0  0  0  0
 22 39  1  0  0  0  0
 22 40  1  0  0  0  0
 23 41  1  0  0  0  0
M  END
$$$$
