
 OpenBabel07202414173D

 56 60  0  0  1  0  0  0  0  0999 V2000
    0.9266    0.1106   -0.2303 Cl  0  0  0  0  0  0  0  0  0  0  0  0
    2.6409    0.0068   -0.0806 C   0  0  0  0  0  0  0  0  0  0  0  0
    3.4190    1.1520   -0.1879 C   0  0  0  0  0  0  0  0  0  0  0  0
    4.8101    1.0741   -0.0395 C   0  0  0  0  0  0  0  0  0  0  0  0
    5.4093   -0.1655    0.1999 C   0  0  0  0  0  0  0  0  0  0  0  0
    4.6199   -1.3311    0.2794 C   0  0  0  0  0  0  0  0  0  0  0  0
    3.2258   -1.2385    0.1467 C   0  0  0  0  0  0  0  0  0  0  0  0
    5.2668   -2.6846    0.5142 C   0  0  3  0  0  0  0  0  0  0  0  0
    5.2477   -3.0878    2.0013 C   0  0  0  0  0  0  0  0  0  0  0  0
    5.2747   -2.2527    2.9028 O   0  0  0  0  0  0  0  0  0  0  0  0
    5.1492   -4.4560    2.1887 N   0  0  0  0  0  0  0  0  0  0  0  0
    5.0446   -5.1657    3.4264 C   0  0  0  0  0  0  0  0  0  0  0  0
    4.9926   -4.5325    4.6638 C   0  0  0  0  0  0  0  0  0  0  0  0
    5.0894   -5.1730    5.8572 N   0  0  0  0  0  0  0  0  0  0  0  0
    5.2143   -6.5140    5.8133 C   0  0  0  0  0  0  0  0  0  0  0  0
    5.1507   -7.2743    4.6481 C   0  0  0  0  0  0  0  0  0  0  0  0
    5.1767   -8.6806    4.6924 C   0  0  0  0  0  0  0  0  0  0  0  0
    5.0409   -9.4329    3.5286 C   0  0  0  0  0  0  0  0  0  0  0  0
    4.8890   -8.7865    2.3090 C   0  0  0  0  0  0  0  0  0  0  0  0
    4.8939   -7.3903    2.2514 C   0  0  0  0  0  0  0  0  0  0  0  0
    5.0392   -6.5900    3.4138 C   0  0  0  0  0  0  0  0  0  0  0  0
    6.6671   -2.6009   -0.0909 C   0  0  0  0  0  0  0  0  0  0  0  0
    7.4310   -1.5169    0.5132 N   0  0  0  0  0  0  0  0  0  0  0  0
    8.5308   -1.7534    1.4561 C   0  0  0  0  0  0  0  0  0  0  0  0
    8.7453   -3.1691    2.0304 C   0  0  0  0  0  0  0  0  0  0  0  0
    8.1585   -4.1753    1.6413 O   0  0  0  0  0  0  0  0  0  0  0  0
    9.7015   -3.2489    3.0237 N   0  0  0  0  0  0  0  0  0  0  0  0
   10.0686   -4.5555    3.5911 C   0  0  0  0  0  0  0  0  0  0  0  0
    8.9308   -5.3016    4.3401 C   0  0  0  0  0  0  0  0  0  0  0  0
   10.0265   -5.8035    5.3027 C   0  0  0  0  0  0  0  0  0  0  0  0
   10.7977   -4.5096    4.9521 C   0  0  0  0  0  0  0  0  0  0  0  0
    6.8849   -0.2345    0.4754 C   0  0  0  0  0  0  0  0  0  0  0  0
    7.5276    0.7801    0.7263 O   0  0  0  0  0  0  0  0  0  0  0  0
    2.9546    2.1190   -0.3647 H   0  0  0  0  0  0  0  0  0  0  0  0
    5.4131    1.9771   -0.0964 H   0  0  0  0  0  0  0  0  0  0  0  0
    2.6074   -2.1256    0.2363 H   0  0  0  0  0  0  0  0  0  0  0  0
    4.7062   -3.4362   -0.0529 H   0  0  0  0  0  0  0  0  0  0  0  0
    5.3990   -5.0277    1.3946 H   0  0  0  0  0  0  0  0  0  0  0  0
    4.8775   -3.4587    4.7701 H   0  0  0  0  0  0  0  0  0  0  0  0
    5.3514   -6.9826    6.7846 H   0  0  0  0  0  0  0  0  0  0  0  0
    5.2757   -9.2001    5.6436 H   0  0  0  0  0  0  0  0  0  0  0  0
    5.0353  -10.5176    3.5763 H   0  0  0  0  0  0  0  0  0  0  0  0
    4.7546   -9.3677    1.3995 H   0  0  0  0  0  0  0  0  0  0  0  0
    4.7349   -6.9380    1.2752 H   0  0  0  0  0  0  0  0  0  0  0  0
    6.5647   -2.3292   -1.1534 H   0  0  0  0  0  0  0  0  0  0  0  0
    7.2057   -3.5442   -0.1268 H   0  0  0  0  0  0  0  0  0  0  0  0
    8.3756   -1.0858    2.3130 H   0  0  0  0  0  0  0  0  0  0  0  0
    9.4556   -1.4395    0.9597 H   0  0  0  0  0  0  0  0  0  0  0  0
   10.1703   -2.3994    3.3198 H   0  0  0  0  0  0  0  0  0  0  0  0
   10.5812   -5.1799    2.8474 H   0  0  0  0  0  0  0  0  0  0  0  0
    8.4092   -6.0757    3.7718 H   0  0  0  0  0  0  0  0  0  0  0  0
    8.1902   -4.6491    4.8180 H   0  0  0  0  0  0  0  0  0  0  0  0
   10.5212   -6.7206    4.9606 H   0  0  0  0  0  0  0  0  0  0  0  0
    9.7297   -5.9241    6.3464 H   0  0  0  0  0  0  0  0  0  0  0  0
   11.8856   -4.6021    4.9105 H   0  0  0  0  0  0  0  0  0  0  0  0
   10.5328   -3.6546    5.5858 H   0  0  0  0  0  0  0  0  0  0  0  0
  1  2  1  0  0  0  0
  2  3  1  0  0  0  0
  2  7  2  0  0  0  0
  3  4  2  0  0  0  0
  3 34  1  0  0  0  0
  4  5  1  0  0  0  0
  4 35  1  0  0  0  0
  5  6  2  0  0  0  0
  5 32  1  0  0  0  0
  6  7  1  0  0  0  0
  6  8  1  0  0  0  0
  7 36  1  0  0  0  0
  8  9  1  0  0  0  0
  8 22  1  0  0  0  0
  8 37  1  0  0  0  0
  9 10  2  0  0  0  0
  9 11  1  0  0  0  0
 11 12  1  0  0  0  0
 11 38  1  0  0  0  0
 12 13  1  0  0  0  0
 12 21  2  0  0  0  0
 13 14  2  0  0  0  0
 13 39  1  0  0  0  0
 14 15  1  0  0  0  0
 15 16  2  0  0  0  0
 15 40  1  0  0  0  0
 16 17  1  0  0  0  0
 16 21  1  0  0  0  0
 17 18  2  0  0  0  0
 17 41  1  0  0  0  0
 18 19  1  0  0  0  0
 18 42  1  0  0  0  0
 19 20  2  0  0  0  0
 19 43  1  0  0  0  0
 20 21  1  0  0  0  0
 20 44  1  0  0  0  0
 22 23  1  0  0  0  0
 22 45  1  0  0  0  0
 22 46  1  0  0  0  0
 23 24  1  0  0  0  0
 23 32  1  0  0  0  0
 24 25  1  0  0  0  0
 24 47  1  0  0  0  0
 24 48  1  0  0  0  0
 25 26  2  0  0  0  0
 25 27  1  0  0  0  0
 27 28  1  0  0  0  0
 27 49  1  0  0  0  0
 28 29  1  0  0  0  0
 28 31  1  0  0  0  0
 28 50  1  0  0  0  0
 29 30  1  0  0  0  0
 29 51  1  0  0  0  0
 29 52  1  0  0  0  0
 30 31  1  0  0  0  0
 30 53  1  0  0  0  0
 30 54  1  0  0  0  0
 31 55  1  0  0  0  0
 31 56  1  0  0  0  0
 32 33  2  0  0  0  0
M  END
$$$$
