
 OpenBabel07202414163D

 43 45  0  0  0  0  0  0  0  0999 V2000
   -5.4979   -0.6047    1.0726 C   0  0  0  0  0  0  0  0  0  0  0  0
   -4.1033   -0.9506    0.6282 C   0  0  0  0  0  0  0  0  0  0  0  0
   -3.7562   -2.3148    0.6103 C   0  0  0  0  0  0  0  0  0  0  0  0
   -2.5062   -2.6893    0.1503 C   0  0  0  0  0  0  0  0  0  0  0  0
   -1.5991   -1.8156   -0.3086 N   0  0  0  0  0  0  0  0  0  0  0  0
   -1.9436   -0.5001   -0.2861 C   0  0  0  0  0  0  0  0  0  0  0  0
   -3.1607    0.0033    0.1811 C   0  0  0  0  0  0  0  0  0  0  0  0
   -3.4675    1.3926    0.2118 N   0  0  0  0  0  0  0  0  0  0  0  0
   -2.6225    2.4539   -0.1064 C   0  0  0  0  0  0  0  0  0  0  0  0
   -1.4429    2.3222   -0.4250 O   0  0  0  0  0  0  0  0  0  0  0  0
   -3.1940    3.7306    0.0442 N   0  0  0  0  0  0  0  0  0  0  0  0
   -2.3266    4.9181    0.0083 C   0  0  0  0  0  0  0  0  0  0  0  0
   -2.2934    5.6945   -1.2998 C   0  0  0  0  0  0  0  0  0  0  0  0
   -2.8051    7.0028   -1.3776 C   0  0  0  0  0  0  0  0  0  0  0  0
   -2.5668    7.8001   -2.5046 C   0  0  0  0  0  0  0  0  0  0  0  0
   -1.8192    7.3013   -3.5681 C   0  0  0  0  0  0  0  0  0  0  0  0
   -1.3579    5.9870   -3.5307 C   0  0  0  0  0  0  0  0  0  0  0  0
   -1.6078    5.1833   -2.4120 C   0  0  0  0  0  0  0  0  0  0  0  0
   -4.5837    3.9553    0.1718 C   0  0  0  0  0  0  0  0  0  0  0  0
   -5.0999    4.5573    1.3261 C   0  0  0  0  0  0  0  0  0  0  0  0
   -6.4784    4.7137    1.4712 C   0  0  0  0  0  0  0  0  0  0  0  0
   -7.3356    4.2980    0.4516 C   0  0  0  0  0  0  0  0  0  0  0  0
   -6.8136    3.7189   -0.7048 C   0  0  0  0  0  0  0  0  0  0  0  0
   -7.8705    3.2147   -1.9630 Cl  0  0  0  0  0  0  0  0  0  0  0  0
   -5.4424    3.5327   -0.8445 C   0  0  0  0  0  0  0  0  0  0  0  0
   -6.0030   -1.4748    1.5101 H   0  0  0  0  0  0  0  0  0  0  0  0
   -6.0944   -0.2809    0.2139 H   0  0  0  0  0  0  0  0  0  0  0  0
   -5.4926    0.1747    1.8394 H   0  0  0  0  0  0  0  0  0  0  0  0
   -4.4463   -3.0812    0.9536 H   0  0  0  0  0  0  0  0  0  0  0  0
   -2.2185   -3.7374    0.1356 H   0  0  0  0  0  0  0  0  0  0  0  0
   -1.1635    0.1398   -0.6787 H   0  0  0  0  0  0  0  0  0  0  0  0
   -4.3491    1.6397    0.6340 H   0  0  0  0  0  0  0  0  0  0  0  0
   -1.2941    4.6256    0.2372 H   0  0  0  0  0  0  0  0  0  0  0  0
   -2.6139    5.5930    0.8240 H   0  0  0  0  0  0  0  0  0  0  0  0
   -3.3544    7.4337   -0.5435 H   0  0  0  0  0  0  0  0  0  0  0  0
   -2.9351    8.8230   -2.5383 H   0  0  0  0  0  0  0  0  0  0  0  0
   -1.5867    7.9363   -4.4194 H   0  0  0  0  0  0  0  0  0  0  0  0
   -0.7713    5.5949   -4.3584 H   0  0  0  0  0  0  0  0  0  0  0  0
   -1.2126    4.1694   -2.3920 H   0  0  0  0  0  0  0  0  0  0  0  0
   -4.4437    4.8605    2.1383 H   0  0  0  0  0  0  0  0  0  0  0  0
   -6.8859    5.1520    2.3792 H   0  0  0  0  0  0  0  0  0  0  0  0
   -8.4088    4.4272    0.5637 H   0  0  0  0  0  0  0  0  0  0  0  0
   -5.0371    3.0862   -1.7496 H   0  0  0  0  0  0  0  0  0  0  0  0
  1  2  1  0  0  0  0
  1 26  1  0  0  0  0
  1 27  1  0  0  0  0
  1 28  1  0  0  0  0
  2  3  1  0  0  0  0
  2  7  2  0  0  0  0
  3  4  2  0  0  0  0
  3 29  1  0  0  0  0
  4  5  1  0  0  0  0
  4 30  1  0  0  0  0
  5  6  2  0  0  0  0
  6  7  1  0  0  0  0
  6 31  1  0  0  0  0
  7  8  1  0  0  0  0
  8  9  1  0  0  0  0
  8 32  1  0  0  0  0
  9 10  2  0  0  0  0
  9 11  1  0  0  0  0
 11 12  1  0  0  0  0
 11 19  1  0  0  0  0
 12 13  1  0  0  0  0
 12 33  1  0  0  0  0
 12 34  1  0  0  0  0
 13 14  1  0  0  0  0
 13 18  2  0  0  0  0
 14 15  2  0  0  0  0
 14 35  1  0  0  0  0
 15 16  1  0  0  0  0
 15 36  1  0  0  0  0
 16 17  2  0  0  0  0
 16 37  1  0  0  0  0
 17 18  1  0  0  0  0
 17 38  1  0  0  0  0
 18 39  1  0  0  0  0
 19 20  1  0  0  0  0
 19 25  2  0  0  0  0
 20 21  2  0  0  0  0
 20 40  1  0  0  0  0
 21 22  1  0  0  0  0
 21 41  1  0  0  0  0
 22 23  2  0  0  0  0
 22 42  1  0  0  0  0
 23 24  1  0  0  0  0
 23 25  1  0  0  0  0
 25 43  1  0  0  0  0
M  END
$$$$
