
 OpenBabel07202414153D

 40 43  0  0  1  0  0  0  0  0999 V2000
    0.9278   -0.1068   -0.0744 C   0  0  0  0  0  0  0  0  0  0  0  0
    2.4441   -0.0311    0.0762 C   0  0  2  0  0  0  0  0  0  0  0  0
    2.9670   -0.7843    1.2990 C   0  0  0  0  0  0  0  0  0  0  0  0
    2.6368   -0.0641    2.5987 C   0  0  0  0  0  0  0  0  0  0  0  0
    3.0265    1.4158    2.5404 C   0  0  1  0  0  0  0  0  0  0  0  0
    2.5951    2.0897    1.2394 C   0  0  0  0  0  0  0  0  0  0  0  0
    2.8957    1.3242    0.0710 O   0  0  0  0  0  0  0  0  0  0  0  0
    2.5349    2.0780    3.7315 N   0  0  0  0  0  0  0  0  0  0  0  0
    3.5330    2.2655    4.6698 C   0  0  0  0  0  0  0  0  0  0  0  0
    3.3022    2.6892    5.7884 O   0  0  0  0  0  0  0  0  0  0  0  0
    4.7306    1.9492    4.0856 N   0  0  0  0  0  0  0  0  0  0  0  0
    5.9919    2.1780    4.6720 C   0  0  0  0  0  0  0  0  0  0  0  0
    6.3747    1.5871    5.9027 C   0  0  0  0  0  0  0  0  0  0  0  0
    5.6045    0.6317    6.6094 C   0  0  0  0  0  0  0  0  0  0  0  0
    6.0643    0.0499    7.7930 C   0  0  0  0  0  0  0  0  0  0  0  0
    7.3030    0.4097    8.3077 C   0  0  0  0  0  0  0  0  0  0  0  0
    8.0890    1.3408    7.6320 C   0  0  0  0  0  0  0  0  0  0  0  0
    7.6445    1.9173    6.4292 C   0  0  0  0  0  0  0  0  0  0  0  0
    8.4476    2.8034    5.7073 C   0  0  0  0  0  0  0  0  0  0  0  0
    8.1181    3.3442    4.5149 N   0  0  0  0  0  0  0  0  0  0  0  0
    6.9092    3.0025    4.0195 C   0  0  0  0  0  0  0  0  0  0  0  0
    4.5407    1.5916    2.7709 C   0  0  0  0  0  0  0  0  0  0  0  0
    5.4133    1.3461    1.9506 O   0  0  0  0  0  0  0  0  0  0  0  0
    0.5912   -1.1467   -0.1280 H   0  0  0  0  0  0  0  0  0  0  0  0
    0.6164    0.4076   -0.9897 H   0  0  0  0  0  0  0  0  0  0  0  0
    0.4031    0.3800    0.7527 H   0  0  0  0  0  0  0  0  0  0  0  0
    2.8819   -0.5003   -0.8130 H   0  0  0  0  0  0  0  0  0  0  0  0
    4.0576   -0.8719    1.2219 H   0  0  0  0  0  0  0  0  0  0  0  0
    2.5697   -1.8054    1.3258 H   0  0  0  0  0  0  0  0  0  0  0  0
    3.1324   -0.5744    3.4344 H   0  0  0  0  0  0  0  0  0  0  0  0
    1.5588   -0.1494    2.7903 H   0  0  0  0  0  0  0  0  0  0  0  0
    3.0980    3.0576    1.1237 H   0  0  0  0  0  0  0  0  0  0  0  0
    1.5209    2.3064    1.2497 H   0  0  0  0  0  0  0  0  0  0  0  0
    1.5646    2.1817    4.0018 H   0  0  0  0  0  0  0  0  0  0  0  0
    4.6362    0.3098    6.2349 H   0  0  0  0  0  0  0  0  0  0  0  0
    5.4526   -0.6876    8.3070 H   0  0  0  0  0  0  0  0  0  0  0  0
    7.6621   -0.0416    9.2290 H   0  0  0  0  0  0  0  0  0  0  0  0
    9.0636    1.6002    8.0402 H   0  0  0  0  0  0  0  0  0  0  0  0
    9.4286    3.0985    6.0730 H   0  0  0  0  0  0  0  0  0  0  0  0
    6.6778    3.4614    3.0614 H   0  0  0  0  0  0  0  0  0  0  0  0
  1  2  1  0  0  0  0
  1 24  1  0  0  0  0
  1 25  1  0  0  0  0
  1 26  1  0  0  0  0
  2  3  1  0  0  0  0
  2  7  1  0  0  0  0
  2 27  1  6  0  0  0
  3  4  1  0  0  0  0
  3 28  1  0  0  0  0
  3 29  1  0  0  0  0
  4  5  1  0  0  0  0
  4 30  1  0  0  0  0
  4 31  1  0  0  0  0
  5  6  1  0  0  0  0
  5  8  1  0  0  0  0
  5 22  1  1  0  0  0
  6  7  1  0  0  0  0
  6 32  1  0  0  0  0
  6 33  1  0  0  0  0
  8  9  1  0  0  0  0
  8 34  1  0  0  0  0
  9 10  2  0  0  0  0
  9 11  1  0  0  0  0
 11 12  1  0  0  0  0
 11 22  1  0  0  0  0
 12 13  2  0  0  0  0
 12 21  1  0  0  0  0
 13 14  1  0  0  0  0
 13 18  1  0  0  0  0
 14 15  2  0  0  0  0
 14 35  1  0  0  0  0
 15 16  1  0  0  0  0
 15 36  1  0  0  0  0
 16 17  2  0  0  0  0
 16 37  1  0  0  0  0
 17 18  1  0  0  0  0
 17 38  1  0  0  0  0
 18 19  2  0  0  0  0
 19 20  1  0  0  0  0
 19 39  1  0  0  0  0
 20 21  2  0  0  0  0
 21 40  1  0  0  0  0
 22 23  2  0  0  0  0
M  END
$$$$
