
 OpenBabel07202414183D

 30 32  0  0  0  0  0  0  0  0999 V2000
   -1.3070   -4.5835   -2.6112 Cl  0  0  0  0  0  0  0  0  0  0  0  0
    0.1528   -3.6712   -2.5918 C   0  0  0  0  0  0  0  0  0  0  0  0
    0.6537   -3.1402   -3.7749 C   0  0  0  0  0  0  0  0  0  0  0  0
    1.8265   -2.3831   -3.7408 C   0  0  0  0  0  0  0  0  0  0  0  0
    2.4951   -2.1641   -2.5328 C   0  0  0  0  0  0  0  0  0  0  0  0
    2.0097   -2.7140   -1.3376 C   0  0  0  0  0  0  0  0  0  0  0  0
    2.6334   -2.4496    0.0143 C   0  0  0  0  0  0  0  0  0  0  0  0
    4.1075   -2.1293    0.0402 C   0  0  0  0  0  0  0  0  0  0  0  0
    4.5125   -0.9780    0.2062 O   0  0  0  0  0  0  0  0  0  0  0  0
    4.9436   -3.2229   -0.1461 N   0  0  0  0  0  0  0  0  0  0  0  0
    6.3440   -3.0662   -0.1290 C   0  0  0  0  0  0  0  0  0  0  0  0
    7.0468   -2.2937    0.7931 C   0  0  0  0  0  0  0  0  0  0  0  0
    8.3908   -2.0812    0.7773 N   0  0  0  0  0  0  0  0  0  0  0  0
    9.1340   -2.6062   -0.2295 C   0  0  0  0  0  0  0  0  0  0  0  0
    8.5206   -3.3981   -1.1958 C   0  0  0  0  0  0  0  0  0  0  0  0
    8.8859   -4.0654   -2.3799 C   0  0  0  0  0  0  0  0  0  0  0  0
    7.8531   -4.6944   -2.9487 N   0  0  0  0  0  0  0  0  0  0  0  0
    6.7627   -4.4176   -2.1349 O   0  0  0  0  0  0  0  0  0  0  0  0
    7.1605   -3.6317   -1.0968 C   0  0  0  0  0  0  0  0  0  0  0  0
    0.8187   -3.4618   -1.3835 C   0  0  0  0  0  0  0  0  0  0  0  0
    0.1363   -3.2994   -4.7163 H   0  0  0  0  0  0  0  0  0  0  0  0
    2.2131   -1.9512   -4.6626 H   0  0  0  0  0  0  0  0  0  0  0  0
    3.3858   -1.5345   -2.5414 H   0  0  0  0  0  0  0  0  0  0  0  0
    2.4784   -3.3155    0.6704 H   0  0  0  0  0  0  0  0  0  0  0  0
    2.1067   -1.6030    0.4740 H   0  0  0  0  0  0  0  0  0  0  0  0
    4.5714   -3.9738   -0.7201 H   0  0  0  0  0  0  0  0  0  0  0  0
    6.5326   -1.8116    1.6224 H   0  0  0  0  0  0  0  0  0  0  0  0
   10.1889   -2.3564   -0.2319 H   0  0  0  0  0  0  0  0  0  0  0  0
    9.8518   -4.1101   -2.8623 H   0  0  0  0  0  0  0  0  0  0  0  0
    0.3952   -3.8676   -0.4662 H   0  0  0  0  0  0  0  0  0  0  0  0
  1  2  1  0  0  0  0
  2  3  1  0  0  0  0
  2 20  2  0  0  0  0
  3  4  2  0  0  0  0
  3 21  1  0  0  0  0
  4  5  1  0  0  0  0
  4 22  1  0  0  0  0
  5  6  2  0  0  0  0
  5 23  1  0  0  0  0
  6  7  1  0  0  0  0
  6 20  1  0  0  0  0
  7  8  1  0  0  0  0
  7 24  1  0  0  0  0
  7 25  1  0  0  0  0
  8  9  2  0  0  0  0
  8 10  1  0  0  0  0
 10 11  1  0  0  0  0
 10 26  1  0  0  0  0
 11 12  1  0  0  0  0
 11 19  2  0  0  0  0
 12 13  2  0  0  0  0
 12 27  1  0  0  0  0
 13 14  1  0  0  0  0
 14 15  2  0  0  0  0
 14 28  1  0  0  0  0
 15 16  1  0  0  0  0
 15 19  1  0  0  0  0
 16 17  2  0  0  0  0
 16 29  1  0  0  0  0
 17 18  1  0  0  0  0
 18 19  1  0  0  0  0
 20 30  1  0  0  0  0
M  END
$$$$
