
 OpenBabel07202414133D

 54 56  0  0  0  0  0  0  0  0999 V2000
   16.8996    5.1526   -5.1143 C   0  0  0  0  0  0  0  0  0  0  0  0
   16.0078    6.1068   -4.3394 C   0  0  0  0  0  0  0  0  0  0  0  0
   15.4193    5.3610   -3.2674 O   0  0  0  0  0  0  0  0  0  0  0  0
   14.2841    4.6837   -3.6067 C   0  0  0  0  0  0  0  0  0  0  0  0
   13.5896    4.9307   -4.5828 O   0  0  0  0  0  0  0  0  0  0  0  0
   14.1070    3.5301   -2.6535 C   0  0  0  0  0  0  0  0  0  0  0  0
   12.9161    2.7167   -3.0134 C   0  0  0  0  0  0  0  0  0  0  0  0
   12.8460    1.6085   -3.8407 C   0  0  0  0  0  0  0  0  0  0  0  0
   11.2309    1.0089   -3.8791 S   0  0  0  0  0  0  0  0  0  0  0  0
   10.7649    2.3058   -2.8926 C   0  0  0  0  0  0  0  0  0  0  0  0
   11.7075    3.1182   -2.4946 N   0  0  0  0  0  0  0  0  0  0  0  0
    9.4424    2.4289   -2.6076 N   0  0  0  0  0  0  0  0  0  0  0  0
    8.8982    3.5077   -1.9701 C   0  0  0  0  0  0  0  0  0  0  0  0
    7.7172    3.4460   -1.6281 O   0  0  0  0  0  0  0  0  0  0  0  0
    9.7104    4.6133   -1.8215 N   0  0  0  0  0  0  0  0  0  0  0  0
    9.4233    5.7941   -1.1756 C   0  0  0  0  0  0  0  0  0  0  0  0
    8.4988    5.8477   -0.2094 C   0  0  0  0  0  0  0  0  0  0  0  0
    8.1056    7.0040    0.4249 N   0  0  0  0  0  0  0  0  0  0  0  0
    8.6084    8.2516    0.0619 C   0  0  0  0  0  0  0  0  0  0  0  0
    8.2189    9.3107    0.5511 O   0  0  0  0  0  0  0  0  0  0  0  0
    9.7027    8.2572   -0.9528 C   0  0  0  0  0  0  0  0  0  0  0  0
   10.1413    7.0462   -1.5222 C   0  0  0  0  0  0  0  0  0  0  0  0
   11.2214    7.1052   -2.4237 C   0  0  0  0  0  0  0  0  0  0  0  0
   11.8294    8.3256   -2.7508 C   0  0  0  0  0  0  0  0  0  0  0  0
   11.3606    9.5138   -2.1993 C   0  0  0  0  0  0  0  0  0  0  0  0
   10.2957    9.4813   -1.3011 C   0  0  0  0  0  0  0  0  0  0  0  0
    7.1053    6.8985    1.4857 C   0  0  0  0  0  0  0  0  0  0  0  0
    5.6495    7.0259    0.9989 C   0  0  0  0  0  0  0  0  0  0  0  0
    5.2335    5.9232    0.0201 C   0  0  0  0  0  0  0  0  0  0  0  0
    4.7160    6.9910    2.2117 C   0  0  0  0  0  0  0  0  0  0  0  0
   17.4061    5.6587   -5.9381 H   0  0  0  0  0  0  0  0  0  0  0  0
   16.3175    4.3158   -5.5170 H   0  0  0  0  0  0  0  0  0  0  0  0
   17.6491    4.7132   -4.4465 H   0  0  0  0  0  0  0  0  0  0  0  0
   15.2534    6.5708   -4.9850 H   0  0  0  0  0  0  0  0  0  0  0  0
   16.6030    6.9116   -3.8980 H   0  0  0  0  0  0  0  0  0  0  0  0
   13.9886    3.9290   -1.6394 H   0  0  0  0  0  0  0  0  0  0  0  0
   15.0067    2.9068   -2.6859 H   0  0  0  0  0  0  0  0  0  0  0  0
   13.6342    1.1312   -4.4057 H   0  0  0  0  0  0  0  0  0  0  0  0
    8.8130    1.6801   -2.8486 H   0  0  0  0  0  0  0  0  0  0  0  0
   10.5820    4.5612   -2.3381 H   0  0  0  0  0  0  0  0  0  0  0  0
    7.9947    4.9478    0.1298 H   0  0  0  0  0  0  0  0  0  0  0  0
   11.6170    6.2126   -2.8994 H   0  0  0  0  0  0  0  0  0  0  0  0
   12.6645    8.3444   -3.4487 H   0  0  0  0  0  0  0  0  0  0  0  0
   11.8201   10.4622   -2.4652 H   0  0  0  0  0  0  0  0  0  0  0  0
    9.9307   10.4106   -0.8675 H   0  0  0  0  0  0  0  0  0  0  0  0
    7.3103    7.6892    2.2183 H   0  0  0  0  0  0  0  0  0  0  0  0
    7.2525    5.9481    2.0159 H   0  0  0  0  0  0  0  0  0  0  0  0
    5.5298    7.9912    0.4927 H   0  0  0  0  0  0  0  0  0  0  0  0
    5.3072    4.9313    0.4799 H   0  0  0  0  0  0  0  0  0  0  0  0
    5.8472    5.9290   -0.8849 H   0  0  0  0  0  0  0  0  0  0  0  0
    4.1958    6.0670   -0.3003 H   0  0  0  0  0  0  0  0  0  0  0  0
    4.7728    6.0238    2.7247 H   0  0  0  0  0  0  0  0  0  0  0  0
    3.6765    7.1514    1.9085 H   0  0  0  0  0  0  0  0  0  0  0  0
    4.9814    7.7706    2.9328 H   0  0  0  0  0  0  0  0  0  0  0  0
  1  2  1  0  0  0  0
  1 31  1  0  0  0  0
  1 32  1  0  0  0  0
  1 33  1  0  0  0  0
  2  3  1  0  0  0  0
  2 34  1  0  0  0  0
  2 35  1  0  0  0  0
  3  4  1  0  0  0  0
  4  5  2  0  0  0  0
  4  6  1  0  0  0  0
  6  7  1  0  0  0  0
  6 36  1  0  0  0  0
  6 37  1  0  0  0  0
  7  8  2  0  0  0  0
  7 11  1  0  0  0  0
  8  9  1  0  0  0  0
  8 38  1  0  0  0  0
  9 10  1  0  0  0  0
 10 11  2  0  0  0  0
 10 12  1  0  0  0  0
 12 13  1  0  0  0  0
 12 39  1  0  0  0  0
 13 14  2  0  0  0  0
 13 15  1  0  0  0  0
 15 16  1  0  0  0  0
 15 40  1  0  0  0  0
 16 17  2  0  0  0  0
 16 22  1  0  0  0  0
 17 18  1  0  0  0  0
 17 41  1  0  0  0  0
 18 19  1  0  0  0  0
 18 27  1  0  0  0  0
 19 20  2  0  0  0  0
 19 21  1  0  0  0  0
 21 22  1  0  0  0  0
 21 26  2  0  0  0  0
 22 23  2  0  0  0  0
 23 24  1  0  0  0  0
 23 42  1  0  0  0  0
 24 25  2  0  0  0  0
 24 43  1  0  0  0  0
 25 26  1  0  0  0  0
 25 44  1  0  0  0  0
 26 45  1  0  0  0  0
 27 28  1  0  0  0  0
 27 46  1  0  0  0  0
 27 47  1  0  0  0  0
 28 29  1  0  0  0  0
 28 30  1  0  0  0  0
 28 48  1  0  0  0  0
 29 49  1  0  0  0  0
 29 50  1  0  0  0  0
 29 51  1  0  0  0  0
 30 52  1  0  0  0  0
 30 53  1  0  0  0  0
 30 54  1  0  0  0  0
M  END
$$$$
