
 OpenBabel07202414183D

 50 53  0  0  1  0  0  0  0  0999 V2000
   -2.0697   -0.0924    0.9622 C   0  0  0  0  0  0  0  0  0  0  0  0
   -0.6478   -0.0831    0.7194 N   0  0  0  0  0  0  0  0  0  0  0  0
    0.2218   -1.1121    0.9294 C   0  0  0  0  0  0  0  0  0  0  0  0
    1.4074   -0.7507    0.3194 C   0  0  0  0  0  0  0  0  0  0  0  0
    1.1714    0.5772   -0.1090 C   0  0  0  0  0  0  0  0  0  0  0  0
   -0.0760    0.9847    0.1360 N   0  0  0  0  0  0  0  0  0  0  0  0
    2.6377   -1.5794    0.1029 C   0  0  0  0  0  0  0  0  0  0  0  0
    2.3348   -3.0595   -0.2257 C   0  0  3  0  0  0  0  0  0  0  0  0
    1.4375   -3.3271   -1.4207 C   0  0  0  0  0  0  0  0  0  0  0  0
    1.3614   -2.4526   -2.5103 C   0  0  0  0  0  0  0  0  0  0  0  0
    0.5081   -2.7226   -3.5798 C   0  0  0  0  0  0  0  0  0  0  0  0
   -0.2808   -3.8711   -3.5805 C   0  0  0  0  0  0  0  0  0  0  0  0
   -0.1953   -4.7592   -2.5086 C   0  0  0  0  0  0  0  0  0  0  0  0
    0.6590   -4.4940   -1.4385 C   0  0  0  0  0  0  0  0  0  0  0  0
   -1.1671   -4.2261   -4.5590 O   0  0  0  0  0  0  0  0  0  0  0  0
   -1.2739   -3.3339   -5.6619 C   0  0  0  0  0  0  0  0  0  0  0  0
    3.6433   -3.8413   -0.2880 C   0  0  0  0  0  0  0  0  0  0  0  0
    4.0841   -4.3122    0.7636 O   0  0  0  0  0  0  0  0  0  0  0  0
    4.2879   -3.8737   -1.5203 N   0  0  0  0  0  0  0  0  0  0  0  0
    5.5577   -4.4125   -1.6953 C   0  0  0  0  0  0  0  0  0  0  0  0
    6.2033   -5.2329   -0.7971 C   0  0  0  0  0  0  0  0  0  0  0  0
    7.5114   -5.3222   -1.1676 N   0  0  0  0  0  0  0  0  0  0  0  0
    7.7084   -4.6809   -2.3620 C   0  0  0  0  0  0  0  0  0  0  0  0
    6.4604   -4.2179   -2.7930 C   0  0  0  0  0  0  0  0  0  0  0  0
    6.3875   -3.6365   -4.0786 C   0  0  0  0  0  0  0  0  0  0  0  0
    7.5601   -3.4972   -4.8412 C   0  0  0  0  0  0  0  0  0  0  0  0
    8.7979   -3.8780   -4.3276 C   0  0  0  0  0  0  0  0  0  0  0  0
    8.8944   -4.4826   -3.0755 C   0  0  0  0  0  0  0  0  0  0  0  0
   -2.3618   -1.0628    1.3722 H   0  0  0  0  0  0  0  0  0  0  0  0
   -2.5789    0.0701    0.0083 H   0  0  0  0  0  0  0  0  0  0  0  0
   -2.3096    0.7041    1.6694 H   0  0  0  0  0  0  0  0  0  0  0  0
   -0.0924   -2.0281    1.4101 H   0  0  0  0  0  0  0  0  0  0  0  0
    1.8478    1.2521   -0.6178 H   0  0  0  0  0  0  0  0  0  0  0  0
    3.2580   -1.5186    1.0074 H   0  0  0  0  0  0  0  0  0  0  0  0
    3.2414   -1.1307   -0.6973 H   0  0  0  0  0  0  0  0  0  0  0  0
    1.8037   -3.4692    0.6481 H   0  0  0  0  0  0  0  0  0  0  0  0
    1.9428   -1.5351   -2.5427 H   0  0  0  0  0  0  0  0  0  0  0  0
    0.4750   -2.0010   -4.3891 H   0  0  0  0  0  0  0  0  0  0  0  0
   -0.8039   -5.6599   -2.5017 H   0  0  0  0  0  0  0  0  0  0  0  0
    0.7026   -5.2019   -0.6113 H   0  0  0  0  0  0  0  0  0  0  0  0
   -2.0585   -3.7090   -6.3246 H   0  0  0  0  0  0  0  0  0  0  0  0
   -0.3370   -3.3062   -6.2289 H   0  0  0  0  0  0  0  0  0  0  0  0
   -1.5681   -2.3298   -5.3367 H   0  0  0  0  0  0  0  0  0  0  0  0
    3.9163   -3.3404   -2.2952 H   0  0  0  0  0  0  0  0  0  0  0  0
    5.8627   -5.7061    0.1132 H   0  0  0  0  0  0  0  0  0  0  0  0
    8.2307   -5.7925   -0.6359 H   0  0  0  0  0  0  0  0  0  0  0  0
    5.4376   -3.3153   -4.4938 H   0  0  0  0  0  0  0  0  0  0  0  0
    7.5085   -3.0722   -5.8413 H   0  0  0  0  0  0  0  0  0  0  0  0
    9.7028   -3.7152   -4.9096 H   0  0  0  0  0  0  0  0  0  0  0  0
    9.8545   -4.7886   -2.6723 H   0  0  0  0  0  0  0  0  0  0  0  0
  1  2  1  0  0  0  0
  1 29  1  0  0  0  0
  1 30  1  0  0  0  0
  1 31  1  0  0  0  0
  2  3  1  0  0  0  0
  2  6  1  0  0  0  0
  3  4  2  0  0  0  0
  3 32  1  0  0  0  0
  4  5  1  0  0  0  0
  4  7  1  0  0  0  0
  5  6  2  0  0  0  0
  5 33  1  0  0  0  0
  7  8  1  0  0  0  0
  7 34  1  0  0  0  0
  7 35  1  0  0  0  0
  8  9  1  0  0  0  0
  8 17  1  0  0  0  0
  8 36  1  0  0  0  0
  9 10  1  0  0  0  0
  9 14  2  0  0  0  0
 10 11  2  0  0  0  0
 10 37  1  0  0  0  0
 11 12  1  0  0  0  0
 11 38  1  0  0  0  0
 12 13  2  0  0  0  0
 12 15  1  0  0  0  0
 13 14  1  0  0  0  0
 13 39  1  0  0  0  0
 14 40  1  0  0  0  0
 15 16  1  0  0  0  0
 16 41  1  0  0  0  0
 16 42  1  0  0  0  0
 16 43  1  0  0  0  0
 17 18  2  0  0  0  0
 17 19  1  0  0  0  0
 19 20  1  0  0  0  0
 19 44  1  0  0  0  0
 20 21  2  0  0  0  0
 20 24  1  0  0  0  0
 21 22  1  0  0  0  0
 21 45  1  0  0  0  0
 22 23  1  0  0  0  0
 22 46  1  0  0  0  0
 23 24  1  0  0  0  0
 23 28  2  0  0  0  0
 24 25  2  0  0  0  0
 25 26  1  0  0  0  0
 25 47  1  0  0  0  0
 26 27  2  0  0  0  0
 26 48  1  0  0  0  0
 27 28  1  0  0  0  0
 27 49  1  0  0  0  0
 28 50  1  0  0  0  0
M  END
$$$$
