
 OpenBabel07202414143D

 60 64  0  0  1  0  0  0  0  0999 V2000
    2.2724    2.1374    1.1042 C   0  0  0  0  0  0  0  0  0  0  0  0
    1.3120    1.2141    0.4948 N   0  0  0  0  0  0  0  0  0  0  0  0
    1.2221   -0.0190    1.2990 C   0  0  0  0  0  0  0  0  0  0  0  0
    0.1359   -0.9861    0.7825 C   0  0  0  0  0  0  0  0  0  0  0  0
   -1.2220   -0.3411    0.7080 N   0  0  0  0  0  0  0  0  0  0  0  0
   -2.0371   -0.0953    2.1707 S   0  0  0  0  0  0  0  0  0  0  0  0
   -1.0796   -0.0283    3.2432 O   0  0  0  0  0  0  0  0  0  0  0  0
   -3.0244    0.9375    1.9920 O   0  0  0  0  0  0  0  0  0  0  0  0
   -2.8740   -1.5443    2.3970 N   0  0  0  0  0  0  0  0  0  0  0  0
   -2.0933   -2.8000    2.4134 C   0  0  0  0  0  0  0  0  0  0  0  0
   -2.8770   -3.9381    3.0759 C   0  0  3  0  0  0  0  0  0  0  0  0
   -2.8279   -3.9065    4.6115 C   0  0  0  0  0  0  0  0  0  0  0  0
   -2.8490   -4.9697    5.2332 O   0  0  0  0  0  0  0  0  0  0  0  0
   -2.8073   -2.6500    5.1888 N   0  0  0  0  0  0  0  0  0  0  0  0
   -2.8239   -2.3475    6.5801 C   0  0  0  0  0  0  0  0  0  0  0  0
   -2.6759   -3.3283    7.5633 C   0  0  0  0  0  0  0  0  0  0  0  0
   -2.8529   -3.1256    8.8895 N   0  0  0  0  0  0  0  0  0  0  0  0
   -3.1464   -1.8672    9.2679 C   0  0  0  0  0  0  0  0  0  0  0  0
   -3.1860   -0.7731    8.4071 C   0  0  0  0  0  0  0  0  0  0  0  0
   -3.3689    0.5290    8.9078 C   0  0  0  0  0  0  0  0  0  0  0  0
   -3.3766    1.6260    8.0518 C   0  0  0  0  0  0  0  0  0  0  0  0
   -3.2360    1.4282    6.6861 C   0  0  0  0  0  0  0  0  0  0  0  0
   -3.0729    0.1349    6.1782 C   0  0  0  0  0  0  0  0  0  0  0  0
   -3.0244   -1.0056    7.0204 C   0  0  0  0  0  0  0  0  0  0  0  0
   -4.2850   -4.0549    2.5265 C   0  0  0  0  0  0  0  0  0  0  0  0
   -4.9751   -5.2777    2.6116 C   0  0  0  0  0  0  0  0  0  0  0  0
   -6.2617   -5.3997    2.0881 C   0  0  0  0  0  0  0  0  0  0  0  0
   -7.0683   -6.9190    2.1356 Cl  0  0  0  0  0  0  0  0  0  0  0  0
   -6.8904   -4.3042    1.5058 C   0  0  0  0  0  0  0  0  0  0  0  0
   -6.2132   -3.0865    1.4144 C   0  0  0  0  0  0  0  0  0  0  0  0
   -4.9008   -2.9543    1.9019 C   0  0  0  0  0  0  0  0  0  0  0  0
   -4.1634   -1.6470    1.6754 C   0  0  0  0  0  0  0  0  0  0  0  0
   -1.0946    0.8846   -0.1609 C   0  0  0  0  0  0  0  0  0  0  0  0
   -0.0159    1.8535    0.3711 C   0  0  0  0  0  0  0  0  0  0  0  0
    3.2534    1.6602    1.2097 H   0  0  0  0  0  0  0  0  0  0  0  0
    1.9503    2.4749    2.0967 H   0  0  0  0  0  0  0  0  0  0  0  0
    2.4146    3.0178    0.4690 H   0  0  0  0  0  0  0  0  0  0  0  0
    1.0508    0.2294    2.3507 H   0  0  0  0  0  0  0  0  0  0  0  0
    2.1843   -0.5444    1.2627 H   0  0  0  0  0  0  0  0  0  0  0  0
    0.1186   -1.8842    1.3991 H   0  0  0  0  0  0  0  0  0  0  0  0
    0.3999   -1.3259   -0.2279 H   0  0  0  0  0  0  0  0  0  0  0  0
   -1.1557   -2.6614    2.9599 H   0  0  0  0  0  0  0  0  0  0  0  0
   -1.8599   -3.0880    1.3810 H   0  0  0  0  0  0  0  0  0  0  0  0
   -2.3383   -4.8583    2.8001 H   0  0  0  0  0  0  0  0  0  0  0  0
   -2.9248   -1.8685    4.5534 H   0  0  0  0  0  0  0  0  0  0  0  0
   -2.3916   -4.3485    7.3283 H   0  0  0  0  0  0  0  0  0  0  0  0
   -3.3457   -1.7568   10.3311 H   0  0  0  0  0  0  0  0  0  0  0  0
   -3.4755    0.6980    9.9772 H   0  0  0  0  0  0  0  0  0  0  0  0
   -3.4814    2.6314    8.4506 H   0  0  0  0  0  0  0  0  0  0  0  0
   -3.2390    2.2776    6.0067 H   0  0  0  0  0  0  0  0  0  0  0  0
   -2.9494    0.0492    5.1053 H   0  0  0  0  0  0  0  0  0  0  0  0
   -4.5013   -6.1425    3.0749 H   0  0  0  0  0  0  0  0  0  0  0  0
   -7.8986   -4.3945    1.1085 H   0  0  0  0  0  0  0  0  0  0  0  0
   -6.7135   -2.2411    0.9443 H   0  0  0  0  0  0  0  0  0  0  0  0
   -4.8234   -0.8456    2.0288 H   0  0  0  0  0  0  0  0  0  0  0  0
   -3.9959   -1.5315    0.5984 H   0  0  0  0  0  0  0  0  0  0  0  0
   -2.0596    1.3919   -0.2613 H   0  0  0  0  0  0  0  0  0  0  0  0
   -0.8271    0.5544   -1.1738 H   0  0  0  0  0  0  0  0  0  0  0  0
   -0.3385    2.2631    1.3362 H   0  0  0  0  0  0  0  0  0  0  0  0
    0.0631    2.6926   -0.3309 H   0  0  0  0  0  0  0  0  0  0  0  0
  1  2  1  0  0  0  0
  1 35  1  0  0  0  0
  1 36  1  0  0  0  0
  1 37  1  0  0  0  0
  2  3  1  0  0  0  0
  2 34  1  0  0  0  0
  3  4  1  0  0  0  0
  3 38  1  0  0  0  0
  3 39  1  0  0  0  0
  4  5  1  0  0  0  0
  4 40  1  0  0  0  0
  4 41  1  0  0  0  0
  5  6  1  0  0  0  0
  5 33  1  0  0  0  0
  6  7  2  0  0  0  0
  6  8  2  0  0  0  0
  6  9  1  0  0  0  0
  9 10  1  0  0  0  0
  9 32  1  0  0  0  0
 10 11  1  0  0  0  0
 10 42  1  0  0  0  0
 10 43  1  0  0  0  0
 11 12  1  0  0  0  0
 11 25  1  0  0  0  0
 11 44  1  0  0  0  0
 12 13  2  0  0  0  0
 12 14  1  0  0  0  0
 14 15  1  0  0  0  0
 14 45  1  0  0  0  0
 15 16  1  0  0  0  0
 15 24  2  0  0  0  0
 16 17  2  0  0  0  0
 16 46  1  0  0  0  0
 17 18  1  0  0  0  0
 18 19  2  0  0  0  0
 18 47  1  0  0  0  0
 19 20  1  0  0  0  0
 19 24  1  0  0  0  0
 20 21  2  0  0  0  0
 20 48  1  0  0  0  0
 21 22  1  0  0  0  0
 21 49  1  0  0  0  0
 22 23  2  0  0  0  0
 22 50  1  0  0  0  0
 23 24  1  0  0  0  0
 23 51  1  0  0  0  0
 25 26  1  0  0  0  0
 25 31  2  0  0  0  0
 26 27  2  0  0  0  0
 26 52  1  0  0  0  0
 27 28  1  0  0  0  0
 27 29  1  0  0  0  0
 29 30  2  0  0  0  0
 29 53  1  0  0  0  0
 30 31  1  0  0  0  0
 30 54  1  0  0  0  0
 31 32  1  0  0  0  0
 32 55  1  0  0  0  0
 32 56  1  0  0  0  0
 33 34  1  0  0  0  0
 33 57  1  0  0  0  0
 33 58  1  0  0  0  0
 34 59  1  0  0  0  0
 34 60  1  0  0  0  0
M  END
$$$$
