
 OpenBabel07202414163D

 44 46  0  0  0  0  0  0  0  0999 V2000
   -5.1896    2.3547   -4.5085 C   0  0  0  0  0  0  0  0  0  0  0  0
   -3.8467    2.9716   -4.7864 C   0  0  0  0  0  0  0  0  0  0  0  0
   -3.3915    2.9698   -6.1157 C   0  0  0  0  0  0  0  0  0  0  0  0
   -2.1685    3.5451   -6.4194 C   0  0  0  0  0  0  0  0  0  0  0  0
   -1.3836    4.1404   -5.5071 N   0  0  0  0  0  0  0  0  0  0  0  0
   -1.8323    4.1364   -4.2287 C   0  0  0  0  0  0  0  0  0  0  0  0
   -3.0332    3.5606   -3.8004 C   0  0  0  0  0  0  0  0  0  0  0  0
   -3.4353    3.5664   -2.4396 N   0  0  0  0  0  0  0  0  0  0  0  0
   -2.6072    3.8346   -1.3582 C   0  0  0  0  0  0  0  0  0  0  0  0
   -1.3998    4.0484   -1.4354 O   0  0  0  0  0  0  0  0  0  0  0  0
   -3.2425    3.8316    0.0227 C   0  0  0  0  0  0  0  0  0  0  0  0
   -4.7335    3.6407    0.0836 C   0  0  0  0  0  0  0  0  0  0  0  0
   -5.5797    4.7557    0.0109 C   0  0  0  0  0  0  0  0  0  0  0  0
   -6.9707    4.6130    0.0649 C   0  0  0  0  0  0  0  0  0  0  0  0
   -7.5112    3.3211    0.1077 C   0  0  0  0  0  0  0  0  0  0  0  0
   -6.6721    2.2071    0.1540 C   0  0  0  0  0  0  0  0  0  0  0  0
   -5.2887    2.3593    0.1620 C   0  0  0  0  0  0  0  0  0  0  0  0
   -7.3501    0.6265    0.1891 Cl  0  0  0  0  0  0  0  0  0  0  0  0
   -7.8489    5.7722    0.0822 C   0  0  0  0  0  0  0  0  0  0  0  0
   -9.1440    5.9230   -0.4621 C   0  0  0  0  0  0  0  0  0  0  0  0
   -9.6726    7.1182   -0.2077 N   0  0  0  0  0  0  0  0  0  0  0  0
   -8.7202    7.7507    0.5043 N   0  0  0  0  0  0  0  0  0  0  0  0
   -7.5993    6.9848    0.7148 C   0  0  0  0  0  0  0  0  0  0  0  0
   -6.4342    7.4870    1.4807 C   0  0  0  0  0  0  0  0  0  0  0  0
   -5.5384    8.0728    0.6421 F   0  0  0  0  0  0  0  0  0  0  0  0
   -6.7769    8.4386    2.3879 F   0  0  0  0  0  0  0  0  0  0  0  0
   -8.9842    9.0910    0.9804 C   0  0  0  0  0  0  0  0  0  0  0  0
   -5.5082    1.7149   -5.3410 H   0  0  0  0  0  0  0  0  0  0  0  0
   -5.9453    3.1352   -4.3790 H   0  0  0  0  0  0  0  0  0  0  0  0
   -5.1599    1.7171   -3.6211 H   0  0  0  0  0  0  0  0  0  0  0  0
   -3.9739    2.5187   -6.9131 H   0  0  0  0  0  0  0  0  0  0  0  0
   -1.7791    3.5398   -7.4327 H   0  0  0  0  0  0  0  0  0  0  0  0
   -1.1670    4.6624   -3.5520 H   0  0  0  0  0  0  0  0  0  0  0  0
   -4.3783    3.2540   -2.2517 H   0  0  0  0  0  0  0  0  0  0  0  0
   -2.9870    4.7895    0.4984 H   0  0  0  0  0  0  0  0  0  0  0  0
   -2.7502    3.0534    0.6180 H   0  0  0  0  0  0  0  0  0  0  0  0
   -5.1297    5.7415   -0.0982 H   0  0  0  0  0  0  0  0  0  0  0  0
   -8.5880    3.1715    0.1205 H   0  0  0  0  0  0  0  0  0  0  0  0
   -4.6451    1.4829    0.2165 H   0  0  0  0  0  0  0  0  0  0  0  0
   -9.7264    5.2110   -1.0332 H   0  0  0  0  0  0  0  0  0  0  0  0
   -5.9214    6.6910    2.0259 H   0  0  0  0  0  0  0  0  0  0  0  0
   -9.9437    9.4341    0.5842 H   0  0  0  0  0  0  0  0  0  0  0  0
   -8.1836    9.7445    0.6306 H   0  0  0  0  0  0  0  0  0  0  0  0
   -9.0296    9.0652    2.0704 H   0  0  0  0  0  0  0  0  0  0  0  0
  1  2  1  0  0  0  0
  1 28  1  0  0  0  0
  1 29  1  0  0  0  0
  1 30  1  0  0  0  0
  2  3  1  0  0  0  0
  2  7  2  0  0  0  0
  3  4  2  0  0  0  0
  3 31  1  0  0  0  0
  4  5  1  0  0  0  0
  4 32  1  0  0  0  0
  5  6  2  0  0  0  0
  6  7  1  0  0  0  0
  6 33  1  0  0  0  0
  7  8  1  0  0  0  0
  8  9  1  0  0  0  0
  8 34  1  0  0  0  0
  9 10  2  0  0  0  0
  9 11  1  0  0  0  0
 11 12  1  0  0  0  0
 11 35  1  0  0  0  0
 11 36  1  0  0  0  0
 12 13  1  0  0  0  0
 12 17  2  0  0  0  0
 13 14  2  0  0  0  0
 13 37  1  0  0  0  0
 14 15  1  0  0  0  0
 14 19  1  0  0  0  0
 15 16  2  0  0  0  0
 15 38  1  0  0  0  0
 16 17  1  0  0  0  0
 16 18  1  0  0  0  0
 17 39  1  0  0  0  0
 19 20  1  0  0  0  0
 19 23  2  0  0  0  0
 20 21  2  0  0  0  0
 20 40  1  0  0  0  0
 21 22  1  0  0  0  0
 22 23  1  0  0  0  0
 22 27  1  0  0  0  0
 23 24  1  0  0  0  0
 24 25  1  0  0  0  0
 24 26  1  0  0  0  0
 24 41  1  0  0  0  0
 27 42  1  0  0  0  0
 27 43  1  0  0  0  0
 27 44  1  0  0  0  0
M  END
$$$$
