
 OpenBabel07202414133D

 46 48  0  0  0  0  0  0  0  0999 V2000
    2.5437   -2.9649    0.1820 C   0  0  0  0  0  0  0  0  0  0  0  0
    2.2457   -1.4755    0.2020 C   0  0  0  0  0  0  0  0  0  0  0  0
    2.9292   -0.6755    1.3200 C   0  0  0  0  0  0  0  0  0  0  0  0
    4.4020   -0.6645    1.3482 N   0  0  0  0  0  0  0  0  0  0  0  0
    5.1642   -0.1512    0.1958 C   0  0  0  0  0  0  0  0  0  0  0  0
    4.5620    0.9480   -0.6909 C   0  0  0  0  0  0  0  0  0  0  0  0
    4.2727    2.2908   -0.0757 C   0  0  0  0  0  0  0  0  0  0  0  0
    3.2526    3.1502   -0.4465 C   0  0  0  0  0  0  0  0  0  0  0  0
    3.3235    4.4077    0.2156 C   0  0  0  0  0  0  0  0  0  0  0  0
    4.3813    4.4630    1.0936 C   0  0  0  0  0  0  0  0  0  0  0  0
    5.2805    3.0067    1.1080 S   0  0  0  0  0  0  0  0  0  0  0  0
    5.0236   -1.2409    2.4651 C   0  0  0  0  0  0  0  0  0  0  0  0
    4.3757   -1.7175    3.4031 O   0  0  0  0  0  0  0  0  0  0  0  0
    6.5536   -1.3116    2.5332 C   0  0  0  0  0  0  0  0  0  0  0  0
    7.1518   -2.4825    1.7800 C   0  0  0  0  0  0  0  0  0  0  0  0
    6.4911   -3.7138    1.8060 C   0  0  0  0  0  0  0  0  0  0  0  0
    6.9100   -4.8262    1.1725 N   0  0  0  0  0  0  0  0  0  0  0  0
    8.0670   -4.7270    0.4899 C   0  0  0  0  0  0  0  0  0  0  0  0
    8.8475   -3.5746    0.4124 C   0  0  0  0  0  0  0  0  0  0  0  0
   10.0531   -3.5625   -0.3096 C   0  0  0  0  0  0  0  0  0  0  0  0
   10.8393   -2.4168   -0.3600 C   0  0  0  0  0  0  0  0  0  0  0  0
   10.4347   -1.2770    0.3244 C   0  0  0  0  0  0  0  0  0  0  0  0
    9.2323   -1.2789    1.0422 C   0  0  0  0  0  0  0  0  0  0  0  0
    8.3968   -2.4185    1.0951 C   0  0  0  0  0  0  0  0  0  0  0  0
    1.9438   -3.4483   -0.5941 H   0  0  0  0  0  0  0  0  0  0  0  0
    2.2982   -3.4347    1.1396 H   0  0  0  0  0  0  0  0  0  0  0  0
    3.5990   -3.1563   -0.0433 H   0  0  0  0  0  0  0  0  0  0  0  0
    1.1630   -1.3538    0.3293 H   0  0  0  0  0  0  0  0  0  0  0  0
    2.4800   -1.0637   -0.7815 H   0  0  0  0  0  0  0  0  0  0  0  0
    2.5390   -1.0514    2.2740 H   0  0  0  0  0  0  0  0  0  0  0  0
    2.6039    0.3662    1.2671 H   0  0  0  0  0  0  0  0  0  0  0  0
    5.3608   -1.0256   -0.4369 H   0  0  0  0  0  0  0  0  0  0  0  0
    6.1430    0.1972    0.5288 H   0  0  0  0  0  0  0  0  0  0  0  0
    3.6526    0.5863   -1.1778 H   0  0  0  0  0  0  0  0  0  0  0  0
    5.2732    1.1292   -1.5092 H   0  0  0  0  0  0  0  0  0  0  0  0
    2.5097    2.9016   -1.1955 H   0  0  0  0  0  0  0  0  0  0  0  0
    2.6423    5.2329    0.0447 H   0  0  0  0  0  0  0  0  0  0  0  0
    4.6752    5.2947    1.7198 H   0  0  0  0  0  0  0  0  0  0  0  0
    6.8332   -1.4164    3.5900 H   0  0  0  0  0  0  0  0  0  0  0  0
    6.9637   -0.3496    2.2353 H   0  0  0  0  0  0  0  0  0  0  0  0
    5.5652   -3.8510    2.3624 H   0  0  0  0  0  0  0  0  0  0  0  0
    8.3673   -5.6456   -0.0116 H   0  0  0  0  0  0  0  0  0  0  0  0
   10.3871   -4.4527   -0.8416 H   0  0  0  0  0  0  0  0  0  0  0  0
   11.7692   -2.4150   -0.9235 H   0  0  0  0  0  0  0  0  0  0  0  0
   11.0533   -0.3837    0.3044 H   0  0  0  0  0  0  0  0  0  0  0  0
    8.9726   -0.3656    1.5720 H   0  0  0  0  0  0  0  0  0  0  0  0
  1  2  1  0  0  0  0
  1 25  1  0  0  0  0
  1 26  1  0  0  0  0
  1 27  1  0  0  0  0
  2  3  1  0  0  0  0
  2 28  1  0  0  0  0
  2 29  1  0  0  0  0
  3  4  1  0  0  0  0
  3 30  1  0  0  0  0
  3 31  1  0  0  0  0
  4  5  1  0  0  0  0
  4 12  1  0  0  0  0
  5  6  1  0  0  0  0
  5 32  1  0  0  0  0
  5 33  1  0  0  0  0
  6  7  1  0  0  0  0
  6 34  1  0  0  0  0
  6 35  1  0  0  0  0
  7  8  2  0  0  0  0
  7 11  1  0  0  0  0
  8  9  1  0  0  0  0
  8 36  1  0  0  0  0
  9 10  2  0  0  0  0
  9 37  1  0  0  0  0
 10 11  1  0  0  0  0
 10 38  1  0  0  0  0
 12 13  2  0  0  0  0
 12 14  1  0  0  0  0
 14 15  1  0  0  0  0
 14 39  1  0  0  0  0
 14 40  1  0  0  0  0
 15 16  1  0  0  0  0
 15 24  2  0  0  0  0
 16 17  2  0  0  0  0
 16 41  1  0  0  0  0
 17 18  1  0  0  0  0
 18 19  2  0  0  0  0
 18 42  1  0  0  0  0
 19 20  1  0  0  0  0
 19 24  1  0  0  0  0
 20 21  2  0  0  0  0
 20 43  1  0  0  0  0
 21 22  1  0  0  0  0
 21 44  1  0  0  0  0
 22 23  2  0  0  0  0
 22 45  1  0  0  0  0
 23 24  1  0  0  0  0
 23 46  1  0  0  0  0
M  END
$$$$
