
 OpenBabel07202414143D

 61 66  0  0  1  0  0  0  0  0999 V2000
    6.2403    1.4621    1.6255 C   0  0  0  0  0  0  0  0  0  0  0  0
    5.4401    0.3489    1.1972 N   0  0  0  0  0  0  0  0  0  0  0  0
    5.4073   -0.0629   -0.1137 C   0  0  0  0  0  0  0  0  0  0  0  0
    5.9852    0.4916   -1.0399 O   0  0  0  0  0  0  0  0  0  0  0  0
    4.5589   -1.3002   -0.3515 C   0  0  0  0  0  0  0  0  0  0  0  0
    5.0807   -2.5288    0.2578 N   0  0  0  0  0  0  0  0  0  0  0  0
    5.5711   -3.5607   -0.6332 C   0  0  0  0  0  0  0  0  0  0  0  0
    6.6122   -4.5267   -0.0558 C   0  0  3  0  0  0  0  0  0  0  0  0
    6.5427   -5.8170   -0.8997 C   0  0  0  0  0  0  0  0  0  0  0  0
    7.9265   -6.0539   -1.4537 C   0  0  0  0  0  0  0  0  0  0  0  0
    8.7776   -4.9912   -0.9667 N   0  0  0  0  0  0  0  0  0  0  0  0
   10.1718   -5.2741   -0.7432 C   0  0  0  0  0  0  0  0  0  0  0  0
   10.7880   -4.9020    0.4532 C   0  0  0  0  0  0  0  0  0  0  0  0
   11.9146   -5.4766    0.9407 N   0  0  0  0  0  0  0  0  0  0  0  0
   12.4953   -6.4260    0.1770 C   0  0  0  0  0  0  0  0  0  0  0  0
   12.0782   -6.7609   -1.1094 C   0  0  0  0  0  0  0  0  0  0  0  0
   12.7915   -7.6743   -1.9081 C   0  0  0  0  0  0  0  0  0  0  0  0
   12.3727   -7.9592   -3.2092 C   0  0  0  0  0  0  0  0  0  0  0  0
   11.2376   -7.3428   -3.7230 C   0  0  0  0  0  0  0  0  0  0  0  0
   10.8855   -7.6932   -4.9962 O   0  0  0  0  0  0  0  0  0  0  0  0
    9.4977   -7.6052   -5.3139 C   0  0  0  0  0  0  0  0  0  0  0  0
    8.7417   -8.0761   -4.2887 F   0  0  0  0  0  0  0  0  0  0  0  0
    9.1565   -6.3095   -5.5176 F   0  0  0  0  0  0  0  0  0  0  0  0
   10.5573   -6.4105   -2.9412 C   0  0  0  0  0  0  0  0  0  0  0  0
   10.9090   -6.1411   -1.5997 C   0  0  0  0  0  0  0  0  0  0  0  0
    8.0474   -4.0202   -0.2571 C   0  0  0  0  0  0  0  0  0  0  0  0
    8.4935   -2.9851    0.2202 O   0  0  0  0  0  0  0  0  0  0  0  0
    6.3807   -4.7996    1.4238 C   0  0  0  0  0  0  0  0  0  0  0  0
    7.0881   -5.8295    2.0836 C   0  0  0  0  0  0  0  0  0  0  0  0
    6.8956   -6.0756    3.4421 C   0  0  0  0  0  0  0  0  0  0  0  0
    7.7855   -7.3275    4.2143 Cl  0  0  0  0  0  0  0  0  0  0  0  0
    5.9973   -5.3082    4.1731 C   0  0  0  0  0  0  0  0  0  0  0  0
    5.3151   -4.2636    3.5465 C   0  0  0  0  0  0  0  0  0  0  0  0
    5.5197   -3.9895    2.1838 C   0  0  0  0  0  0  0  0  0  0  0  0
    4.8792   -2.7723    1.6090 C   0  0  0  0  0  0  0  0  0  0  0  0
    4.2497   -2.0095    2.3401 O   0  0  0  0  0  0  0  0  0  0  0  0
    3.7956   -1.3891   -1.6762 C   0  0  0  0  0  0  0  0  0  0  0  0
    3.0507   -1.0758   -0.4230 C   0  0  0  0  0  0  0  0  0  0  0  0
    6.3165    1.4425    2.7152 H   0  0  0  0  0  0  0  0  0  0  0  0
    5.7566    2.3879    1.3034 H   0  0  0  0  0  0  0  0  0  0  0  0
    7.2370    1.3999    1.1802 H   0  0  0  0  0  0  0  0  0  0  0  0
    4.9378   -0.2148    1.8820 H   0  0  0  0  0  0  0  0  0  0  0  0
    5.9448   -3.0996   -1.5552 H   0  0  0  0  0  0  0  0  0  0  0  0
    4.6655   -4.1297   -0.8886 H   0  0  0  0  0  0  0  0  0  0  0  0
    5.8468   -5.7310   -1.7442 H   0  0  0  0  0  0  0  0  0  0  0  0
    6.1921   -6.6889   -0.3345 H   0  0  0  0  0  0  0  0  0  0  0  0
    7.8802   -6.0137   -2.5452 H   0  0  0  0  0  0  0  0  0  0  0  0
    8.2965   -7.0347   -1.1366 H   0  0  0  0  0  0  0  0  0  0  0  0
   10.3550   -4.1688    1.1263 H   0  0  0  0  0  0  0  0  0  0  0  0
   13.3492   -6.9148    0.6402 H   0  0  0  0  0  0  0  0  0  0  0  0
   13.6881   -8.1615   -1.5281 H   0  0  0  0  0  0  0  0  0  0  0  0
   12.9405   -8.6544   -3.8218 H   0  0  0  0  0  0  0  0  0  0  0  0
    9.2796   -8.1836   -6.2146 H   0  0  0  0  0  0  0  0  0  0  0  0
    9.7569   -5.8312   -3.3912 H   0  0  0  0  0  0  0  0  0  0  0  0
    7.8172   -6.4348    1.5470 H   0  0  0  0  0  0  0  0  0  0  0  0
    5.8426   -5.4971    5.2323 H   0  0  0  0  0  0  0  0  0  0  0  0
    4.6400   -3.6443    4.1352 H   0  0  0  0  0  0  0  0  0  0  0  0
    3.6092   -2.3536   -2.1310 H   0  0  0  0  0  0  0  0  0  0  0  0
    3.9541   -0.5966   -2.4002 H   0  0  0  0  0  0  0  0  0  0  0  0
    2.4019   -1.8346   -0.0034 H   0  0  0  0  0  0  0  0  0  0  0  0
    2.6750   -0.0649   -0.3072 H   0  0  0  0  0  0  0  0  0  0  0  0
  1  2  1  0  0  0  0
  1 39  1  0  0  0  0
  1 40  1  0  0  0  0
  1 41  1  0  0  0  0
  2  3  1  0  0  0  0
  2 42  1  0  0  0  0
  3  4  2  0  0  0  0
  3  5  1  0  0  0  0
  5  6  1  0  0  0  0
  5 37  1  0  0  0  0
  5 38  1  0  0  0  0
  6  7  1  0  0  0  0
  6 35  1  0  0  0  0
  7  8  1  0  0  0  0
  7 43  1  0  0  0  0
  7 44  1  0  0  0  0
  8  9  1  0  0  0  0
  8 26  1  0  0  0  0
  8 28  1  0  0  0  0
  9 10  1  0  0  0  0
  9 45  1  0  0  0  0
  9 46  1  0  0  0  0
 10 11  1  0  0  0  0
 10 47  1  0  0  0  0
 10 48  1  0  0  0  0
 11 12  1  0  0  0  0
 11 26  1  0  0  0  0
 12 13  1  0  0  0  0
 12 25  2  0  0  0  0
 13 14  2  0  0  0  0
 13 49  1  0  0  0  0
 14 15  1  0  0  0  0
 15 16  2  0  0  0  0
 15 50  1  0  0  0  0
 16 17  1  0  0  0  0
 16 25  1  0  0  0  0
 17 18  2  0  0  0  0
 17 51  1  0  0  0  0
 18 19  1  0  0  0  0
 18 52  1  0  0  0  0
 19 20  1  0  0  0  0
 19 24  2  0  0  0  0
 20 21  1  0  0  0  0
 21 22  1  0  0  0  0
 21 23  1  0  0  0  0
 21 53  1  0  0  0  0
 24 25  1  0  0  0  0
 24 54  1  0  0  0  0
 26 27  2  0  0  0  0
 28 29  1  0  0  0  0
 28 34  2  0  0  0  0
 29 30  2  0  0  0  0
 29 55  1  0  0  0  0
 30 31  1  0  0  0  0
 30 32  1  0  0  0  0
 32 33  2  0  0  0  0
 32 56  1  0  0  0  0
 33 34  1  0  0  0  0
 33 57  1  0  0  0  0
 34 35  1  0  0  0  0
 35 36  2  0  0  0  0
 37 38  1  0  0  0  0
 37 58  1  0  0  0  0
 37 59  1  0  0  0  0
 38 60  1  0  0  0  0
 38 61  1  0  0  0  0
M  END
$$$$
