
 OpenBabel07202414133D

 63 66  0  0  0  0  0  0  0  0999 V2000
    8.9831   -2.6222   -0.1144 C   0  0  0  0  0  0  0  0  0  0  0  0
    9.8168   -2.5981    1.1558 C   0  0  0  0  0  0  0  0  0  0  0  0
   10.2190   -3.9619    1.6033 N   0  0  0  0  0  0  0  0  0  0  0  0
   10.9077   -4.8023    0.5819 C   0  0  0  0  0  0  0  0  0  0  0  0
   12.2964   -4.3064    0.2149 C   0  0  0  0  0  0  0  0  0  0  0  0
   10.9685   -4.0099    3.1499 S   0  0  0  0  0  0  0  0  0  0  0  0
   11.2169   -5.3865    3.4991 O   0  0  0  0  0  0  0  0  0  0  0  0
   12.0306   -3.0298    3.1363 O   0  0  0  0  0  0  0  0  0  0  0  0
    9.6898   -3.4131    4.2348 C   0  0  0  0  0  0  0  0  0  0  0  0
    8.5563   -4.1969    4.4590 C   0  0  0  0  0  0  0  0  0  0  0  0
    7.5469   -3.7228    5.3072 C   0  0  0  0  0  0  0  0  0  0  0  0
    7.6753   -2.4839    5.9527 C   0  0  0  0  0  0  0  0  0  0  0  0
    6.6370   -2.0230    6.7987 N   0  0  0  0  0  0  0  0  0  0  0  0
    6.7751   -1.1839    7.9299 C   0  0  0  0  0  0  0  0  0  0  0  0
    5.7811   -0.2400    8.2602 C   0  0  0  0  0  0  0  0  0  0  0  0
    5.9333    0.6149    9.3689 C   0  0  0  0  0  0  0  0  0  0  0  0
    4.8850    1.6038    9.8312 C   0  0  0  0  0  0  0  0  0  0  0  0
    4.0030    2.2352    8.7776 C   0  0  0  0  0  0  0  0  0  0  0  0
    2.8270    1.9052    8.6512 O   0  0  0  0  0  0  0  0  0  0  0  0
    4.6407    3.2080    8.0112 N   0  0  0  0  0  0  0  0  0  0  0  0
    3.8933    3.8745    7.0052 C   0  0  0  0  0  0  0  0  0  0  0  0
    2.7420    4.5883    7.3492 C   0  0  0  0  0  0  0  0  0  0  0  0
    1.9094    5.1679    6.4583 N   0  0  0  0  0  0  0  0  0  0  0  0
    2.1597    4.8986    5.1605 C   0  0  0  0  0  0  0  0  0  0  0  0
    3.2304    4.1244    4.7038 C   0  0  0  0  0  0  0  0  0  0  0  0
    3.3211    3.7068    3.3661 C   0  0  0  0  0  0  0  0  0  0  0  0
    4.4053    2.9460    2.9330 C   0  0  0  0  0  0  0  0  0  0  0  0
    5.4511    2.6729    3.8066 C   0  0  0  0  0  0  0  0  0  0  0  0
    5.3539    3.0489    5.1466 C   0  0  0  0  0  0  0  0  0  0  0  0
    4.2007    3.7043    5.6384 C   0  0  0  0  0  0  0  0  0  0  0  0
    7.0752    0.4706   10.1749 C   0  0  0  0  0  0  0  0  0  0  0  0
    8.0391   -0.4866    9.8789 C   0  0  0  0  0  0  0  0  0  0  0  0
    9.4126   -0.6577   10.9001 Cl  0  0  0  0  0  0  0  0  0  0  0  0
    7.8915   -1.3092    8.7701 C   0  0  0  0  0  0  0  0  0  0  0  0
    8.8241   -1.7155    5.7095 C   0  0  0  0  0  0  0  0  0  0  0  0
    9.8331   -2.1764    4.8660 C   0  0  0  0  0  0  0  0  0  0  0  0
    8.5111   -1.6467   -0.2708 H   0  0  0  0  0  0  0  0  0  0  0  0
    8.1955   -3.3810   -0.0650 H   0  0  0  0  0  0  0  0  0  0  0  0
    9.6042   -2.8252   -0.9926 H   0  0  0  0  0  0  0  0  0  0  0  0
    9.1940   -2.1404    1.9307 H   0  0  0  0  0  0  0  0  0  0  0  0
   10.6950   -1.9600    1.0159 H   0  0  0  0  0  0  0  0  0  0  0  0
   10.2870   -4.8602   -0.3165 H   0  0  0  0  0  0  0  0  0  0  0  0
   10.9670   -5.8359    0.9456 H   0  0  0  0  0  0  0  0  0  0  0  0
   12.3139   -3.2331    0.0087 H   0  0  0  0  0  0  0  0  0  0  0  0
   12.6536   -4.8252   -0.6805 H   0  0  0  0  0  0  0  0  0  0  0  0
   13.0139   -4.5098    1.0162 H   0  0  0  0  0  0  0  0  0  0  0  0
    8.4572   -5.1716    3.9835 H   0  0  0  0  0  0  0  0  0  0  0  0
    6.6722   -4.3439    5.4890 H   0  0  0  0  0  0  0  0  0  0  0  0
    5.7753   -1.8797    6.2794 H   0  0  0  0  0  0  0  0  0  0  0  0
    4.8797   -0.1829    7.6512 H   0  0  0  0  0  0  0  0  0  0  0  0
    5.3696    2.4307   10.3665 H   0  0  0  0  0  0  0  0  0  0  0  0
    4.2323    1.1010   10.5549 H   0  0  0  0  0  0  0  0  0  0  0  0
    5.6062    2.9887    7.8015 H   0  0  0  0  0  0  0  0  0  0  0  0
    2.4474    4.7126    8.3880 H   0  0  0  0  0  0  0  0  0  0  0  0
    1.4378    5.3256    4.4683 H   0  0  0  0  0  0  0  0  0  0  0  0
    2.5130    3.9215    2.6696 H   0  0  0  0  0  0  0  0  0  0  0  0
    4.4334    2.5707    1.9137 H   0  0  0  0  0  0  0  0  0  0  0  0
    6.3281    2.1350    3.4565 H   0  0  0  0  0  0  0  0  0  0  0  0
    6.1829    2.8021    5.8030 H   0  0  0  0  0  0  0  0  0  0  0  0
    7.2012    1.0907   11.0607 H   0  0  0  0  0  0  0  0  0  0  0  0
    8.6409   -2.0715    8.5696 H   0  0  0  0  0  0  0  0  0  0  0  0
    8.9427   -0.7405    6.1753 H   0  0  0  0  0  0  0  0  0  0  0  0
   10.7170   -1.5661    4.7015 H   0  0  0  0  0  0  0  0  0  0  0  0
  1  2  1  0  0  0  0
  1 37  1  0  0  0  0
  1 38  1  0  0  0  0
  1 39  1  0  0  0  0
  2  3  1  0  0  0  0
  2 40  1  0  0  0  0
  2 41  1  0  0  0  0
  3  4  1  0  0  0  0
  3  6  1  0  0  0  0
  4  5  1  0  0  0  0
  4 42  1  0  0  0  0
  4 43  1  0  0  0  0
  5 44  1  0  0  0  0
  5 45  1  0  0  0  0
  5 46  1  0  0  0  0
  6  7  2  0  0  0  0
  6  8  2  0  0  0  0
  6  9  1  0  0  0  0
  9 10  2  0  0  0  0
  9 36  1  0  0  0  0
 10 11  1  0  0  0  0
 10 47  1  0  0  0  0
 11 12  2  0  0  0  0
 11 48  1  0  0  0  0
 12 13  1  0  0  0  0
 12 35  1  0  0  0  0
 13 14  1  0  0  0  0
 13 49  1  0  0  0  0
 14 15  2  0  0  0  0
 14 34  1  0  0  0  0
 15 16  1  0  0  0  0
 15 50  1  0  0  0  0
 16 17  1  0  0  0  0
 16 31  2  0  0  0  0
 17 18  1  0  0  0  0
 17 51  1  0  0  0  0
 17 52  1  0  0  0  0
 18 19  2  0  0  0  0
 18 20  1  0  0  0  0
 20 21  1  0  0  0  0
 20 53  1  0  0  0  0
 21 22  2  0  0  0  0
 21 30  1  0  0  0  0
 22 23  1  0  0  0  0
 22 54  1  0  0  0  0
 23 24  2  0  0  0  0
 24 25  1  0  0  0  0
 24 55  1  0  0  0  0
 25 26  2  0  0  0  0
 25 30  1  0  0  0  0
 26 27  1  0  0  0  0
 26 56  1  0  0  0  0
 27 28  2  0  0  0  0
 27 57  1  0  0  0  0
 28 29  1  0  0  0  0
 28 58  1  0  0  0  0
 29 30  2  0  0  0  0
 29 59  1  0  0  0  0
 31 32  1  0  0  0  0
 31 60  1  0  0  0  0
 32 33  1  0  0  0  0
 32 34  2  0  0  0  0
 34 61  1  0  0  0  0
 35 36  2  0  0  0  0
 35 62  1  0  0  0  0
 36 63  1  0  0  0  0
M  END
$$$$
