
 OpenBabel07202414183D

 61 66  0  0  1  0  0  0  0  0999 V2000
    0.9695   -0.0999   -0.0204 Cl  0  0  0  0  0  0  0  0  0  0  0  0
    2.6852   -0.0664   -0.1469 C   0  0  0  0  0  0  0  0  0  0  0  0
    3.4084   -1.2405    0.0156 C   0  0  0  0  0  0  0  0  0  0  0  0
    4.8030   -1.2022   -0.0310 C   0  0  0  0  0  0  0  0  0  0  0  0
    5.4846    0.0156   -0.2249 C   0  0  0  0  0  0  0  0  0  0  0  0
    4.7468    1.2106   -0.4224 C   0  0  0  0  0  0  0  0  0  0  0  0
    3.3420    1.1488   -0.3754 C   0  0  0  0  0  0  0  0  0  0  0  0
    5.4824    2.5585   -0.5138 C   0  0  2  0  0  0  0  0  0  0  0  0
    6.9890    2.3191   -0.8125 C   0  0  0  0  0  0  0  0  0  0  0  0
    7.6723    1.2748    0.0108 N   0  0  0  0  0  0  0  0  0  0  0  0
    7.7597    1.4744    1.4866 C   0  0  0  0  0  0  0  0  0  0  0  0
    8.5201    2.7344    1.9316 C   0  0  0  0  0  0  0  0  0  0  0  0
    8.2027    3.3441    2.9426 O   0  0  0  0  0  0  0  0  0  0  0  0
    9.5903    3.0783    1.1436 N   0  0  0  0  0  0  0  0  0  0  0  0
   10.3824    4.2555    1.4083 C   0  0  0  0  0  0  0  0  0  0  0  0
   11.8232    3.8893    1.5755 C   0  0  0  0  0  0  0  0  0  0  0  0
   12.2760    2.9253    2.6461 C   0  0  0  0  0  0  0  0  0  0  0  0
   12.5805    4.3892    2.7839 C   0  0  0  0  0  0  0  0  0  0  0  0
    7.0051   -0.0174   -0.2542 C   0  0  0  0  0  0  0  0  0  0  0  0
    5.3889    3.2493    0.8408 C   0  0  0  0  0  0  0  0  0  0  0  0
    4.5238    4.4489    0.6779 C   0  0  0  0  0  0  0  0  0  0  0  0
    4.1122    4.5609   -0.6878 N   0  0  0  0  0  0  0  0  0  0  0  0
    3.4982    5.7948   -1.0873 C   0  0  0  0  0  0  0  0  0  0  0  0
    3.7794    6.3699   -2.3258 C   0  0  0  0  0  0  0  0  0  0  0  0
    3.5734    7.6778   -2.6182 N   0  0  0  0  0  0  0  0  0  0  0  0
    2.9682    8.4310   -1.6749 C   0  0  0  0  0  0  0  0  0  0  0  0
    2.4329    7.9412   -0.4903 C   0  0  0  0  0  0  0  0  0  0  0  0
    1.6369    8.7645    0.3386 C   0  0  0  0  0  0  0  0  0  0  0  0
    1.1046    8.2963    1.5356 C   0  0  0  0  0  0  0  0  0  0  0  0
    1.3668    6.9982    1.9191 C   0  0  0  0  0  0  0  0  0  0  0  0
    2.1003    6.1659    1.0680 C   0  0  0  0  0  0  0  0  0  0  0  0
    2.7000    6.5905   -0.1602 C   0  0  0  0  0  0  0  0  0  0  0  0
    4.8120    3.5922   -1.4792 C   0  0  0  0  0  0  0  0  0  0  0  0
    4.8398    3.5296   -2.6997 O   0  0  0  0  0  0  0  0  0  0  0  0
    2.8987   -2.1846    0.1906 H   0  0  0  0  0  0  0  0  0  0  0  0
    5.3551   -2.1261    0.1033 H   0  0  0  0  0  0  0  0  0  0  0  0
    2.7402    2.0473   -0.4829 H   0  0  0  0  0  0  0  0  0  0  0  0
    7.5426    3.2634   -0.7363 H   0  0  0  0  0  0  0  0  0  0  0  0
    7.1077    2.0270   -1.8659 H   0  0  0  0  0  0  0  0  0  0  0  0
    8.3131    0.6402    1.9361 H   0  0  0  0  0  0  0  0  0  0  0  0
    6.7787    1.4745    1.9697 H   0  0  0  0  0  0  0  0  0  0  0  0
    9.7433    2.5322    0.3027 H   0  0  0  0  0  0  0  0  0  0  0  0
   10.0035    4.7815    2.2904 H   0  0  0  0  0  0  0  0  0  0  0  0
   10.2667    4.9280    0.5519 H   0  0  0  0  0  0  0  0  0  0  0  0
   12.3481    3.8670    0.6274 H   0  0  0  0  0  0  0  0  0  0  0  0
   13.0991    2.2590    2.4142 H   0  0  0  0  0  0  0  0  0  0  0  0
   11.5306    2.4973    3.3070 H   0  0  0  0  0  0  0  0  0  0  0  0
   13.6059    4.7121    2.6483 H   0  0  0  0  0  0  0  0  0  0  0  0
   12.0448    4.9379    3.5517 H   0  0  0  0  0  0  0  0  0  0  0  0
    7.3652   -0.7719    0.4603 H   0  0  0  0  0  0  0  0  0  0  0  0
    7.3167   -0.3726   -1.2442 H   0  0  0  0  0  0  0  0  0  0  0  0
    6.3461    3.6254    1.1931 H   0  0  0  0  0  0  0  0  0  0  0  0
    4.9764    2.6085    1.6285 H   0  0  0  0  0  0  0  0  0  0  0  0
    5.0777    5.3545    0.9644 H   0  0  0  0  0  0  0  0  0  0  0  0
    3.6927    4.2805    1.3416 H   0  0  0  0  0  0  0  0  0  0  0  0
    4.2539    5.8198   -3.1308 H   0  0  0  0  0  0  0  0  0  0  0  0
    2.9168    9.4932   -1.9085 H   0  0  0  0  0  0  0  0  0  0  0  0
    1.3928    9.7798    0.0320 H   0  0  0  0  0  0  0  0  0  0  0  0
    0.4667    8.9270    2.1497 H   0  0  0  0  0  0  0  0  0  0  0  0
    0.9744    6.6057    2.8542 H   0  0  0  0  0  0  0  0  0  0  0  0
    2.1231    5.1309    1.3820 H   0  0  0  0  0  0  0  0  0  0  0  0
  1  2  1  0  0  0  0
  2  3  1  0  0  0  0
  2  7  2  0  0  0  0
  3  4  2  0  0  0  0
  3 35  1  0  0  0  0
  4  5  1  0  0  0  0
  4 36  1  0  0  0  0
  5  6  2  0  0  0  0
  5 19  1  0  0  0  0
  6  7  1  0  0  0  0
  7 37  1  0  0  0  0
  8  6  1  1  0  0  0
  8  9  1  0  0  0  0
  8 20  1  0  0  0  0
  8 33  1  0  0  0  0
  9 10  1  0  0  0  0
  9 38  1  0  0  0  0
  9 39  1  0  0  0  0
 10 11  1  0  0  0  0
 10 19  1  0  0  0  0
 11 12  1  0  0  0  0
 11 40  1  0  0  0  0
 11 41  1  0  0  0  0
 12 13  2  0  0  0  0
 12 14  1  0  0  0  0
 14 15  1  0  0  0  0
 14 42  1  0  0  0  0
 15 16  1  0  0  0  0
 15 43  1  0  0  0  0
 15 44  1  0  0  0  0
 16 17  1  0  0  0  0
 16 18  1  0  0  0  0
 16 45  1  0  0  0  0
 17 18  1  0  0  0  0
 17 46  1  0  0  0  0
 17 47  1  0  0  0  0
 18 48  1  0  0  0  0
 18 49  1  0  0  0  0
 19 50  1  0  0  0  0
 19 51  1  0  0  0  0
 20 21  1  0  0  0  0
 20 52  1  0  0  0  0
 20 53  1  0  0  0  0
 21 22  1  0  0  0  0
 21 54  1  0  0  0  0
 21 55  1  0  0  0  0
 22 23  1  0  0  0  0
 22 33  1  0  0  0  0
 23 24  1  0  0  0  0
 23 32  2  0  0  0  0
 24 25  2  0  0  0  0
 24 56  1  0  0  0  0
 25 26  1  0  0  0  0
 26 27  2  0  0  0  0
 26 57  1  0  0  0  0
 27 28  1  0  0  0  0
 27 32  1  0  0  0  0
 28 29  2  0  0  0  0
 28 58  1  0  0  0  0
 29 30  1  0  0  0  0
 29 59  1  0  0  0  0
 30 31  2  0  0  0  0
 30 60  1  0  0  0  0
 31 32  1  0  0  0  0
 31 61  1  0  0  0  0
 33 34  2  0  0  0  0
M  END
$$$$
