
 OpenBabel07202414193D

 47 50  0  0  1  0  0  0  0  0999 V2000
    1.1648    0.2964   -0.8306 O   0  0  0  0  0  0  0  0  0  0  0  0
    2.2155    0.0252   -0.2426 C   0  0  0  0  0  0  0  0  0  0  0  0
    2.7204    0.9613    0.8481 C   0  0  0  0  0  0  0  0  0  0  0  0
    2.2714    0.6539    2.2621 C   0  0  0  0  0  0  0  0  0  0  0  0
    1.3436   -0.3559    2.5268 C   0  0  0  0  0  0  0  0  0  0  0  0
    0.8661   -0.6585    3.7527 N   0  0  0  0  0  0  0  0  0  0  0  0
    1.3234    0.0853    4.7801 C   0  0  0  0  0  0  0  0  0  0  0  0
    2.2490    1.1210    4.6574 C   0  0  0  0  0  0  0  0  0  0  0  0
    2.6745    1.8530    5.7805 C   0  0  0  0  0  0  0  0  0  0  0  0
    3.5996    2.8838    5.6451 C   0  0  0  0  0  0  0  0  0  0  0  0
    4.1026    3.1937    4.3886 C   0  0  0  0  0  0  0  0  0  0  0  0
    3.6779    2.4757    3.2650 C   0  0  0  0  0  0  0  0  0  0  0  0
    2.7420    1.4183    3.3676 C   0  0  0  0  0  0  0  0  0  0  0  0
    2.9481   -1.1157   -0.5441 N   0  0  0  0  0  0  0  0  0  0  0  0
    2.5360   -1.9450   -1.6768 C   0  0  0  0  0  0  0  0  0  0  0  0
    2.4956   -3.4247   -1.3060 C   0  0  0  0  0  0  0  0  0  0  0  0
    3.8281   -3.8891   -0.7144 C   0  0  0  0  0  0  0  0  0  0  0  0
    4.2167   -3.0188    0.4912 C   0  0  1  0  0  0  0  0  0  0  0  0
    3.2171   -3.1943    1.4215 F   0  0  0  0  0  0  0  0  0  0  0  0
    5.5715   -3.4019    1.0712 C   0  0  0  0  0  0  0  0  0  0  0  0
    6.7513   -3.3593    0.3092 C   0  0  0  0  0  0  0  0  0  0  0  0
    7.9835   -3.6707    0.8869 C   0  0  0  0  0  0  0  0  0  0  0  0
    8.0553   -4.0313    2.2306 C   0  0  0  0  0  0  0  0  0  0  0  0
    6.8945   -4.0856    2.9975 C   0  0  0  0  0  0  0  0  0  0  0  0
    5.6621   -3.7730    2.4221 C   0  0  0  0  0  0  0  0  0  0  0  0
    4.2004   -1.5199    0.1142 C   0  0  0  0  0  0  0  0  0  0  0  0
    2.3481    1.9612    0.5866 H   0  0  0  0  0  0  0  0  0  0  0  0
    3.8112    1.0281    0.7875 H   0  0  0  0  0  0  0  0  0  0  0  0
    0.9265   -0.9801    1.7393 H   0  0  0  0  0  0  0  0  0  0  0  0
    0.9051   -0.1856    5.7460 H   0  0  0  0  0  0  0  0  0  0  0  0
    2.2836    1.6226    6.7692 H   0  0  0  0  0  0  0  0  0  0  0  0
    3.9244    3.4438    6.5186 H   0  0  0  0  0  0  0  0  0  0  0  0
    4.8250    3.9985    4.2759 H   0  0  0  0  0  0  0  0  0  0  0  0
    4.0925    2.7605    2.3015 H   0  0  0  0  0  0  0  0  0  0  0  0
    3.2639   -1.7765   -2.4795 H   0  0  0  0  0  0  0  0  0  0  0  0
    1.5574   -1.6400   -2.0602 H   0  0  0  0  0  0  0  0  0  0  0  0
    2.2568   -4.0228   -2.1924 H   0  0  0  0  0  0  0  0  0  0  0  0
    1.6946   -3.5963   -0.5763 H   0  0  0  0  0  0  0  0  0  0  0  0
    4.5965   -3.8537   -1.4958 H   0  0  0  0  0  0  0  0  0  0  0  0
    3.7306   -4.9363   -0.4032 H   0  0  0  0  0  0  0  0  0  0  0  0
    6.7287   -3.0759   -0.7407 H   0  0  0  0  0  0  0  0  0  0  0  0
    8.8912   -3.6294    0.2894 H   0  0  0  0  0  0  0  0  0  0  0  0
    9.0150   -4.2704    2.6809 H   0  0  0  0  0  0  0  0  0  0  0  0
    6.9461   -4.3671    4.0464 H   0  0  0  0  0  0  0  0  0  0  0  0
    4.7667   -3.8137    3.0419 H   0  0  0  0  0  0  0  0  0  0  0  0
    5.0074   -1.2721   -0.5860 H   0  0  0  0  0  0  0  0  0  0  0  0
    4.3651   -0.9375    1.0226 H   0  0  0  0  0  0  0  0  0  0  0  0
  1  2  2  0  0  0  0
  2  3  1  0  0  0  0
  2 14  1  0  0  0  0
  3  4  1  0  0  0  0
  3 27  1  0  0  0  0
  3 28  1  0  0  0  0
  4  5  1  0  0  0  0
  4 13  2  0  0  0  0
  5  6  2  0  0  0  0
  5 29  1  0  0  0  0
  6  7  1  0  0  0  0
  7  8  2  0  0  0  0
  7 30  1  0  0  0  0
  8  9  1  0  0  0  0
  8 13  1  0  0  0  0
  9 10  2  0  0  0  0
  9 31  1  0  0  0  0
 10 11  1  0  0  0  0
 10 32  1  0  0  0  0
 11 12  2  0  0  0  0
 11 33  1  0  0  0  0
 12 13  1  0  0  0  0
 12 34  1  0  0  0  0
 14 15  1  0  0  0  0
 14 26  1  0  0  0  0
 15 16  1  0  0  0  0
 15 35  1  0  0  0  0
 15 36  1  0  0  0  0
 16 17  1  0  0  0  0
 16 37  1  0  0  0  0
 16 38  1  0  0  0  0
 17 18  1  0  0  0  0
 17 39  1  0  0  0  0
 17 40  1  0  0  0  0
 18 19  1  1  0  0  0
 18 20  1  0  0  0  0
 18 26  1  0  0  0  0
 20 21  1  0  0  0  0
 20 25  2  0  0  0  0
 21 22  2  0  0  0  0
 21 41  1  0  0  0  0
 22 23  1  0  0  0  0
 22 42  1  0  0  0  0
 23 24  2  0  0  0  0
 23 43  1  0  0  0  0
 24 25  1  0  0  0  0
 24 44  1  0  0  0  0
 25 45  1  0  0  0  0
 26 46  1  0  0  0  0
 26 47  1  0  0  0  0
M  END
$$$$
