
 OpenBabel07202414163D

 36 38  0  0  1  0  0  0  0  0999 V2000
    1.6768    2.6211   -0.3975 C   0  0  0  0  0  0  0  0  0  0  0  0
    0.8549    1.3755   -0.5708 C   0  0  0  0  0  0  0  0  0  0  0  0
    1.5545    0.1927   -0.9021 C   0  0  0  0  0  0  0  0  0  0  0  0
    0.8635   -0.9944   -1.0596 C   0  0  0  0  0  0  0  0  0  0  0  0
   -0.4593   -1.0962   -0.8814 N   0  0  0  0  0  0  0  0  0  0  0  0
   -1.1198    0.0484   -0.5576 C   0  0  0  0  0  0  0  0  0  0  0  0
   -0.5446    1.3211   -0.4080 C   0  0  0  0  0  0  0  0  0  0  0  0
   -1.3224    2.4995   -0.1289 N   0  0  0  0  0  0  0  0  0  0  0  0
   -2.7090    2.5496   -0.1934 C   0  0  0  0  0  0  0  0  0  0  0  0
   -3.4129    1.5798   -0.5018 O   0  0  0  0  0  0  0  0  0  0  0  0
   -3.4286    3.8842   -0.0258 C   0  0  2  0  0  0  0  0  0  0  0  0
   -3.3602    4.7379   -1.2940 C   0  0  0  0  0  0  0  0  0  0  0  0
   -2.5754    6.0116   -1.0610 C   0  0  0  0  0  0  0  0  0  0  0  0
   -3.1332    6.7774    0.0064 O   0  0  0  0  0  0  0  0  0  0  0  0
   -3.2489    6.0846    1.1806 C   0  0  0  0  0  0  0  0  0  0  0  0
   -3.2607    4.6824    1.2479 C   0  0  0  0  0  0  0  0  0  0  0  0
   -3.4073    4.0772    2.5077 C   0  0  0  0  0  0  0  0  0  0  0  0
   -3.5964    4.8628    3.6497 C   0  0  0  0  0  0  0  0  0  0  0  0
   -3.6430    6.2518    3.5594 C   0  0  0  0  0  0  0  0  0  0  0  0
   -3.4586    6.8631    2.3216 C   0  0  0  0  0  0  0  0  0  0  0  0
   -3.8547    4.1068    5.1745 Cl  0  0  0  0  0  0  0  0  0  0  0  0
    2.6725    2.4997   -0.8443 H   0  0  0  0  0  0  0  0  0  0  0  0
    1.8152    2.8331    0.6668 H   0  0  0  0  0  0  0  0  0  0  0  0
    1.2148    3.4779   -0.8945 H   0  0  0  0  0  0  0  0  0  0  0  0
    2.6316    0.1925   -1.0499 H   0  0  0  0  0  0  0  0  0  0  0  0
    1.3664   -1.9161   -1.3363 H   0  0  0  0  0  0  0  0  0  0  0  0
   -2.1760   -0.1395   -0.4035 H   0  0  0  0  0  0  0  0  0  0  0  0
   -0.8181    3.3590    0.0541 H   0  0  0  0  0  0  0  0  0  0  0  0
   -4.4865    3.5741    0.0376 H   0  0  0  0  0  0  0  0  0  0  0  0
   -4.3885    5.0224   -1.5592 H   0  0  0  0  0  0  0  0  0  0  0  0
   -2.9575    4.1812   -2.1469 H   0  0  0  0  0  0  0  0  0  0  0  0
   -2.6246    6.6356   -1.9603 H   0  0  0  0  0  0  0  0  0  0  0  0
   -1.5168    5.8117   -0.8587 H   0  0  0  0  0  0  0  0  0  0  0  0
   -3.4576    2.9943    2.5953 H   0  0  0  0  0  0  0  0  0  0  0  0
   -3.8460    6.8605    4.4369 H   0  0  0  0  0  0  0  0  0  0  0  0
   -3.5170    7.9458    2.2363 H   0  0  0  0  0  0  0  0  0  0  0  0
  1  2  1  0  0  0  0
  1 22  1  0  0  0  0
  1 23  1  0  0  0  0
  1 24  1  0  0  0  0
  2  3  1  0  0  0  0
  2  7  2  0  0  0  0
  3  4  2  0  0  0  0
  3 25  1  0  0  0  0
  4  5  1  0  0  0  0
  4 26  1  0  0  0  0
  5  6  2  0  0  0  0
  6  7  1  0  0  0  0
  6 27  1  0  0  0  0
  7  8  1  0  0  0  0
  8  9  1  0  0  0  0
  8 28  1  0  0  0  0
  9 10  2  0  0  0  0
  9 11  1  0  0  0  0
 11 12  1  0  0  0  0
 11 16  1  0  0  0  0
 11 29  1  1  0  0  0
 12 13  1  0  0  0  0
 12 30  1  0  0  0  0
 12 31  1  0  0  0  0
 13 14  1  0  0  0  0
 13 32  1  0  0  0  0
 13 33  1  0  0  0  0
 14 15  1  0  0  0  0
 15 16  1  0  0  0  0
 15 20  2  0  0  0  0
 16 17  2  0  0  0  0
 17 18  1  0  0  0  0
 17 34  1  0  0  0  0
 18 19  2  0  0  0  0
 18 21  1  0  0  0  0
 19 20  1  0  0  0  0
 19 35  1  0  0  0  0
 20 36  1  0  0  0  0
M  END
$$$$
