
 OpenBabel07202414203D

 37 40  0  0  1  0  0  0  0  0999 V2000
    2.5116   -0.6126    0.1370 C   0  0  0  0  0  0  0  0  0  0  0  0
    2.4208    0.7729    0.0276 C   0  0  0  0  0  0  0  0  0  0  0  0
    1.1697    1.3842   -0.0464 C   0  0  0  0  0  0  0  0  0  0  0  0
    0.0102    0.6103   -0.0265 C   0  0  0  0  0  0  0  0  0  0  0  0
    0.0908   -0.7858    0.0202 C   0  0  0  0  0  0  0  0  0  0  0  0
    1.3531   -1.3895    0.1427 C   0  0  0  0  0  0  0  0  0  0  0  0
   -1.1655   -1.6310   -0.0620 C   0  0  3  0  0  0  0  0  0  0  0  0
   -2.3870   -0.7773   -0.4122 C   0  0  0  0  0  0  0  0  0  0  0  0
   -2.3056    0.5346    0.3422 C   0  0  0  0  0  0  0  0  0  0  0  0
   -1.1740    1.2944   -0.0939 O   0  0  0  0  0  0  0  0  0  0  0  0
   -1.0534   -2.7768   -1.0709 C   0  0  0  0  0  0  0  0  0  0  0  0
   -1.3526   -3.9188   -0.7285 O   0  0  0  0  0  0  0  0  0  0  0  0
   -0.6150   -2.3811   -2.3230 N   0  0  0  0  0  0  0  0  0  0  0  0
   -0.4535   -3.2888   -3.3481 C   0  0  0  0  0  0  0  0  0  0  0  0
   -0.8663   -4.5393   -3.4021 N   0  0  0  0  0  0  0  0  0  0  0  0
   -0.4563   -5.0933   -4.5948 N   0  0  0  0  0  0  0  0  0  0  0  0
    0.2115   -4.1718   -5.2458 C   0  0  0  0  0  0  0  0  0  0  0  0
    0.2198   -3.0205   -4.5197 N   0  0  0  0  0  0  0  0  0  0  0  0
    0.8638   -1.7784   -4.8980 C   0  0  0  0  0  0  0  0  0  0  0  0
    1.1015   -1.3939   -6.3495 C   0  0  0  0  0  0  0  0  0  0  0  0
    2.2619   -1.7659   -5.4930 C   0  0  0  0  0  0  0  0  0  0  0  0
    3.4858   -1.0901    0.2169 H   0  0  0  0  0  0  0  0  0  0  0  0
    3.3230    1.3791    0.0149 H   0  0  0  0  0  0  0  0  0  0  0  0
    1.0972    2.4669   -0.1083 H   0  0  0  0  0  0  0  0  0  0  0  0
    1.4448   -2.4718    0.2304 H   0  0  0  0  0  0  0  0  0  0  0  0
   -1.3175   -2.0719    0.9321 H   0  0  0  0  0  0  0  0  0  0  0  0
   -3.3085   -1.3164   -0.1640 H   0  0  0  0  0  0  0  0  0  0  0  0
   -2.4184   -0.5655   -1.4890 H   0  0  0  0  0  0  0  0  0  0  0  0
   -2.2562    0.3840    1.4283 H   0  0  0  0  0  0  0  0  0  0  0  0
   -3.1982    1.1348    0.1375 H   0  0  0  0  0  0  0  0  0  0  0  0
   -0.2717   -1.4385   -2.4365 H   0  0  0  0  0  0  0  0  0  0  0  0
    0.6807   -4.2920   -6.2108 H   0  0  0  0  0  0  0  0  0  0  0  0
    0.6552   -0.9574   -4.2200 H   0  0  0  0  0  0  0  0  0  0  0  0
    0.9865   -0.3499   -6.6235 H   0  0  0  0  0  0  0  0  0  0  0  0
    0.8206   -2.0746   -7.1455 H   0  0  0  0  0  0  0  0  0  0  0  0
    2.9355   -0.9759   -5.1761 H   0  0  0  0  0  0  0  0  0  0  0  0
    2.7647   -2.7084   -5.6802 H   0  0  0  0  0  0  0  0  0  0  0  0
  1  2  1  0  0  0  0
  1  6  2  0  0  0  0
  1 22  1  0  0  0  0
  2  3  2  0  0  0  0
  2 23  1  0  0  0  0
  3  4  1  0  0  0  0
  3 24  1  0  0  0  0
  4  5  2  0  0  0  0
  4 10  1  0  0  0  0
  5  6  1  0  0  0  0
  5  7  1  0  0  0  0
  6 25  1  0  0  0  0
  7  8  1  0  0  0  0
  7 11  1  0  0  0  0
  7 26  1  0  0  0  0
  8  9  1  0  0  0  0
  8 27  1  0  0  0  0
  8 28  1  0  0  0  0
  9 10  1  0  0  0  0
  9 29  1  0  0  0  0
  9 30  1  0  0  0  0
 11 12  2  0  0  0  0
 11 13  1  0  0  0  0
 13 14  1  0  0  0  0
 13 31  1  0  0  0  0
 14 15  2  0  0  0  0
 14 18  1  0  0  0  0
 15 16  1  0  0  0  0
 16 17  2  0  0  0  0
 17 18  1  0  0  0  0
 17 32  1  0  0  0  0
 18 19  1  0  0  0  0
 19 20  1  0  0  0  0
 19 21  1  0  0  0  0
 19 33  1  0  0  0  0
 20 21  1  0  0  0  0
 20 34  1  0  0  0  0
 20 35  1  0  0  0  0
 21 36  1  0  0  0  0
 21 37  1  0  0  0  0
M  END
$$$$
