
 OpenBabel07202414143D

 43 46  0  0  1  0  0  0  0  0999 V2000
    1.2557    0.0470   -0.1829 C   0  0  0  0  0  0  0  0  0  0  0  0
    2.7132    0.0708   -0.1658 N   0  0  0  0  0  0  0  0  0  0  0  0
    3.4131   -1.1968   -0.3680 C   0  0  0  0  0  0  0  0  0  0  0  0
    4.6745   -1.2711    0.4740 C   0  0  0  0  0  0  0  0  0  0  0  0
    5.5823   -0.0767    0.2005 C   0  0  1  0  0  0  0  0  0  0  0  0
    6.3355   -0.2560   -1.1274 C   0  0  0  0  0  0  0  0  0  0  0  0
    7.4024   -0.8673   -1.1451 O   0  0  0  0  0  0  0  0  0  0  0  0
    5.6874    0.2482   -2.2409 N   0  0  0  0  0  0  0  0  0  0  0  0
    6.1995    0.4047   -3.5530 C   0  0  0  0  0  0  0  0  0  0  0  0
    7.4998    0.0402   -3.9025 C   0  0  0  0  0  0  0  0  0  0  0  0
    8.0813    0.3181   -5.0926 N   0  0  0  0  0  0  0  0  0  0  0  0
    7.3190    0.9622   -5.9979 C   0  0  0  0  0  0  0  0  0  0  0  0
    5.9786    1.2939   -5.8117 C   0  0  0  0  0  0  0  0  0  0  0  0
    5.2313    1.8810   -6.8491 C   0  0  0  0  0  0  0  0  0  0  0  0
    3.8833    2.1802   -6.6727 C   0  0  0  0  0  0  0  0  0  0  0  0
    3.2777    1.9232   -5.4506 C   0  0  0  0  0  0  0  0  0  0  0  0
    4.0166    1.3570   -4.4066 C   0  0  0  0  0  0  0  0  0  0  0  0
    5.3877    1.0140   -4.5566 C   0  0  0  0  0  0  0  0  0  0  0  0
    4.8102    1.2281    0.2846 C   0  0  0  0  0  0  0  0  0  0  0  0
    5.5241    2.4201    0.5242 C   0  0  0  0  0  0  0  0  0  0  0  0
    4.8581    3.6391    0.5433 C   0  0  0  0  0  0  0  0  0  0  0  0
    5.7294    5.0922    0.8343 Cl  0  0  0  0  0  0  0  0  0  0  0  0
    3.4890    3.6855    0.3208 C   0  0  0  0  0  0  0  0  0  0  0  0
    2.7795    2.5003    0.0905 C   0  0  0  0  0  0  0  0  0  0  0  0
    3.4163    1.2471    0.0686 C   0  0  0  0  0  0  0  0  0  0  0  0
    0.8698   -0.9729   -0.2757 H   0  0  0  0  0  0  0  0  0  0  0  0
    0.8655    0.6201   -1.0267 H   0  0  0  0  0  0  0  0  0  0  0  0
    0.8529    0.4541    0.7536 H   0  0  0  0  0  0  0  0  0  0  0  0
    3.6400   -1.3190   -1.4334 H   0  0  0  0  0  0  0  0  0  0  0  0
    2.7703   -2.0411   -0.0938 H   0  0  0  0  0  0  0  0  0  0  0  0
    5.1980   -2.2143    0.2773 H   0  0  0  0  0  0  0  0  0  0  0  0
    4.3935   -1.2757    1.5361 H   0  0  0  0  0  0  0  0  0  0  0  0
    6.3492   -0.0584    0.9880 H   0  0  0  0  0  0  0  0  0  0  0  0
    4.7811    0.6668   -2.0690 H   0  0  0  0  0  0  0  0  0  0  0  0
    8.1586   -0.4918   -3.2250 H   0  0  0  0  0  0  0  0  0  0  0  0
    7.8372    1.2065   -6.9221 H   0  0  0  0  0  0  0  0  0  0  0  0
    5.6937    2.0880   -7.8123 H   0  0  0  0  0  0  0  0  0  0  0  0
    3.3068    2.6048   -7.4905 H   0  0  0  0  0  0  0  0  0  0  0  0
    2.2249    2.1537   -5.3068 H   0  0  0  0  0  0  0  0  0  0  0  0
    3.4833    1.1655   -3.4794 H   0  0  0  0  0  0  0  0  0  0  0  0
    6.5988    2.3918    0.6874 H   0  0  0  0  0  0  0  0  0  0  0  0
    2.9619    4.6358    0.3216 H   0  0  0  0  0  0  0  0  0  0  0  0
    1.7110    2.5895   -0.0814 H   0  0  0  0  0  0  0  0  0  0  0  0
  1  2  1  0  0  0  0
  1 26  1  0  0  0  0
  1 27  1  0  0  0  0
  1 28  1  0  0  0  0
  2  3  1  0  0  0  0
  2 25  1  0  0  0  0
  3  4  1  0  0  0  0
  3 29  1  0  0  0  0
  3 30  1  0  0  0  0
  4  5  1  0  0  0  0
  4 31  1  0  0  0  0
  4 32  1  0  0  0  0
  5  6  1  0  0  0  0
  5 19  1  0  0  0  0
  5 33  1  1  0  0  0
  6  7  2  0  0  0  0
  6  8  1  0  0  0  0
  8  9  1  0  0  0  0
  8 34  1  0  0  0  0
  9 10  1  0  0  0  0
  9 18  2  0  0  0  0
 10 11  2  0  0  0  0
 10 35  1  0  0  0  0
 11 12  1  0  0  0  0
 12 13  2  0  0  0  0
 12 36  1  0  0  0  0
 13 14  1  0  0  0  0
 13 18  1  0  0  0  0
 14 15  2  0  0  0  0
 14 37  1  0  0  0  0
 15 16  1  0  0  0  0
 15 38  1  0  0  0  0
 16 17  2  0  0  0  0
 16 39  1  0  0  0  0
 17 18  1  0  0  0  0
 17 40  1  0  0  0  0
 19 20  1  0  0  0  0
 19 25  2  0  0  0  0
 20 21  2  0  0  0  0
 20 41  1  0  0  0  0
 21 22  1  0  0  0  0
 21 23  1  0  0  0  0
 23 24  2  0  0  0  0
 23 42  1  0  0  0  0
 24 25  1  0  0  0  0
 24 43  1  0  0  0  0
M  END
$$$$
