
 OpenBabel07202414133D

 48 51  0  0  0  0  0  0  0  0999 V2000
    5.4199    2.1818   -1.0842 C   0  0  0  0  0  0  0  0  0  0  0  0
    5.4977    0.7821   -1.6234 C   0  0  0  0  0  0  0  0  0  0  0  0
    5.6435    0.4381   -2.9679 C   0  0  0  0  0  0  0  0  0  0  0  0
    5.8501    1.8108   -4.5237 I   0  0  0  0  0  0  0  0  0  0  0  0
    5.6469   -0.9136   -3.2979 C   0  0  0  0  0  0  0  0  0  0  0  0
    5.5056   -1.9253   -2.4057 N   0  0  0  0  0  0  0  0  0  0  0  0
    5.3872   -1.5995   -1.1050 C   0  0  0  0  0  0  0  0  0  0  0  0
    5.2127   -2.5935   -0.1215 N   0  0  0  0  0  0  0  0  0  0  0  0
    4.6193   -3.8664   -0.2561 C   0  0  0  0  0  0  0  0  0  0  0  0
    3.6155   -4.1006   -1.2042 C   0  0  0  0  0  0  0  0  0  0  0  0
    2.9389   -5.3154   -1.2201 C   0  0  0  0  0  0  0  0  0  0  0  0
    1.6434   -5.5554   -2.3304 Cl  0  0  0  0  0  0  0  0  0  0  0  0
    3.2671   -6.3213   -0.3080 C   0  0  0  0  0  0  0  0  0  0  0  0
    4.2928   -6.1335    0.6340 C   0  0  0  0  0  0  0  0  0  0  0  0
    4.5295   -7.2122    1.6775 C   0  0  0  0  0  0  0  0  0  0  0  0
    5.9645   -7.4128    2.1792 C   0  0  0  0  0  0  0  0  0  0  0  0
    6.3990   -6.8941    3.1913 O   0  0  0  0  0  0  0  0  0  0  0  0
    6.6665   -8.2467    1.3406 N   0  0  0  0  0  0  0  0  0  0  0  0
    8.0241   -8.6403    1.4774 C   0  0  0  0  0  0  0  0  0  0  0  0
    8.7786   -8.3338    0.3491 C   0  0  0  0  0  0  0  0  0  0  0  0
    9.4866   -9.2364   -0.3509 N   0  0  0  0  0  0  0  0  0  0  0  0
    9.5581  -10.4686    0.1900 C   0  0  0  0  0  0  0  0  0  0  0  0
    9.1097  -10.7953    1.4664 C   0  0  0  0  0  0  0  0  0  0  0  0
    9.4208  -12.0433    2.0478 C   0  0  0  0  0  0  0  0  0  0  0  0
    9.0246  -12.3286    3.3439 C   0  0  0  0  0  0  0  0  0  0  0  0
    8.2656  -11.4063    4.0604 C   0  0  0  0  0  0  0  0  0  0  0  0
    7.8902  -10.1914    3.4654 C   0  0  0  0  0  0  0  0  0  0  0  0
    8.3235   -9.8493    2.1637 C   0  0  0  0  0  0  0  0  0  0  0  0
    4.9481   -4.8911    0.6540 C   0  0  0  0  0  0  0  0  0  0  0  0
    5.3939   -0.2672   -0.6906 C   0  0  0  0  0  0  0  0  0  0  0  0
    5.4556    2.9562   -1.8516 H   0  0  0  0  0  0  0  0  0  0  0  0
    6.2504    2.3625   -0.3938 H   0  0  0  0  0  0  0  0  0  0  0  0
    4.4761    2.3147   -0.5425 H   0  0  0  0  0  0  0  0  0  0  0  0
    5.7626   -1.2479   -4.3262 H   0  0  0  0  0  0  0  0  0  0  0  0
    5.8991   -2.5185    0.6165 H   0  0  0  0  0  0  0  0  0  0  0  0
    3.3265   -3.3195   -1.9029 H   0  0  0  0  0  0  0  0  0  0  0  0
    2.6919   -7.2473   -0.3226 H   0  0  0  0  0  0  0  0  0  0  0  0
    4.2051   -8.1747    1.2638 H   0  0  0  0  0  0  0  0  0  0  0  0
    3.8913   -7.0165    2.5456 H   0  0  0  0  0  0  0  0  0  0  0  0
    6.3682   -8.1887    0.3747 H   0  0  0  0  0  0  0  0  0  0  0  0
    8.7182   -7.3460   -0.1019 H   0  0  0  0  0  0  0  0  0  0  0  0
   10.0100  -11.2167   -0.4589 H   0  0  0  0  0  0  0  0  0  0  0  0
   10.0160  -12.7647    1.4947 H   0  0  0  0  0  0  0  0  0  0  0  0
    9.3245  -13.2702    3.8041 H   0  0  0  0  0  0  0  0  0  0  0  0
    7.9768  -11.6319    5.0840 H   0  0  0  0  0  0  0  0  0  0  0  0
    7.3132   -9.4796    4.0526 H   0  0  0  0  0  0  0  0  0  0  0  0
    5.7150   -4.7037    1.4063 H   0  0  0  0  0  0  0  0  0  0  0  0
    5.2690   -0.0400    0.3651 H   0  0  0  0  0  0  0  0  0  0  0  0
  1  2  1  0  0  0  0
  1 31  1  0  0  0  0
  1 32  1  0  0  0  0
  1 33  1  0  0  0  0
  2  3  2  0  0  0  0
  2 30  1  0  0  0  0
  3  4  1  0  0  0  0
  3  5  1  0  0  0  0
  5  6  2  0  0  0  0
  5 34  1  0  0  0  0
  6  7  1  0  0  0  0
  7  8  1  0  0  0  0
  7 30  2  0  0  0  0
  8  9  1  0  0  0  0
  8 35  1  0  0  0  0
  9 10  2  0  0  0  0
  9 29  1  0  0  0  0
 10 11  1  0  0  0  0
 10 36  1  0  0  0  0
 11 12  1  0  0  0  0
 11 13  2  0  0  0  0
 13 14  1  0  0  0  0
 13 37  1  0  0  0  0
 14 15  1  0  0  0  0
 14 29  2  0  0  0  0
 15 16  1  0  0  0  0
 15 38  1  0  0  0  0
 15 39  1  0  0  0  0
 16 17  2  0  0  0  0
 16 18  1  0  0  0  0
 18 19  1  0  0  0  0
 18 40  1  0  0  0  0
 19 20  2  0  0  0  0
 19 28  1  0  0  0  0
 20 21  1  0  0  0  0
 20 41  1  0  0  0  0
 21 22  2  0  0  0  0
 22 23  1  0  0  0  0
 22 42  1  0  0  0  0
 23 24  2  0  0  0  0
 23 28  1  0  0  0  0
 24 25  1  0  0  0  0
 24 43  1  0  0  0  0
 25 26  2  0  0  0  0
 25 44  1  0  0  0  0
 26 27  1  0  0  0  0
 26 45  1  0  0  0  0
 27 28  2  0  0  0  0
 27 46  1  0  0  0  0
 29 47  1  0  0  0  0
 30 48  1  0  0  0  0
M  END
$$$$
