
 OpenBabel07202414163D

 69 72  0  0  1  0  0  0  0  0999 V2000
   -4.6247    1.9733    7.8680 C   0  0  0  0  0  0  0  0  0  0  0  0
   -4.1411    2.5018    6.5500 C   0  0  0  0  0  0  0  0  0  0  0  0
   -2.8410    2.3239    6.0571 C   0  0  0  0  0  0  0  0  0  0  0  0
   -2.4691    2.8287    4.7907 C   0  0  0  0  0  0  0  0  0  0  0  0
   -3.4195    3.4805    4.0069 C   0  0  0  0  0  0  0  0  0  0  0  0
   -3.0587    4.2961    2.4566 S   0  0  0  0  0  0  0  0  0  0  0  0
   -3.5694    5.6512    2.5824 O   0  0  0  0  0  0  0  0  0  0  0  0
   -1.6536    4.0658    2.1890 O   0  0  0  0  0  0  0  0  0  0  0  0
   -4.0289    3.4675    1.1764 C   0  0  0  0  0  0  0  0  0  0  0  0
   -5.4961    3.5364    1.1635 N   0  0  0  0  0  0  0  0  0  0  0  0
   -6.2021    2.9223    0.1474 C   0  0  0  0  0  0  0  0  0  0  0  0
   -5.6108    2.2497   -0.7014 O   0  0  0  0  0  0  0  0  0  0  0  0
   -7.7625    3.0909    0.0869 C   0  0  3  0  0  0  0  0  0  0  0  0
   -8.4870    2.4106    1.1986 N   0  0  0  0  0  0  0  0  0  0  0  0
   -8.4803    2.7194    2.5742 C   0  0  0  0  0  0  0  0  0  0  0  0
   -8.9765    1.9436    3.3978 O   0  0  0  0  0  0  0  0  0  0  0  0
   -7.9303    3.9599    3.1109 C   0  0  0  0  0  0  0  0  0  0  0  0
   -7.9698    4.2460    4.4624 C   0  0  0  0  0  0  0  0  0  0  0  0
   -7.4385    5.4778    4.6730 O   0  0  0  0  0  0  0  0  0  0  0  0
   -7.0874    5.8983    3.4276 C   0  0  0  0  0  0  0  0  0  0  0  0
   -7.3116    5.0209    2.4676 N   0  0  0  0  0  0  0  0  0  0  0  0
   -9.3497    1.3085    0.8261 C   0  0  0  0  0  0  0  0  0  0  0  0
  -10.6745    1.3044    1.2740 C   0  0  0  0  0  0  0  0  0  0  0  0
  -11.5107    0.2030    1.0738 C   0  0  0  0  0  0  0  0  0  0  0  0
  -11.0646   -0.9454    0.4069 C   0  0  0  0  0  0  0  0  0  0  0  0
  -11.9907   -2.1599    0.1874 C   0  0  0  0  0  0  0  0  0  0  0  0
  -13.4228   -1.9407    0.7375 C   0  0  0  0  0  0  0  0  0  0  0  0
  -12.1212   -2.4428   -1.3230 C   0  0  0  0  0  0  0  0  0  0  0  0
  -11.4381   -3.4222    0.8833 C   0  0  0  0  0  0  0  0  0  0  0  0
   -9.7360   -0.9239   -0.0690 C   0  0  0  0  0  0  0  0  0  0  0  0
   -8.8911    0.1923    0.1212 C   0  0  0  0  0  0  0  0  0  0  0  0
   -8.2522    4.4754   -0.3426 C   0  0  0  0  0  0  0  0  0  0  0  0
   -9.1754    5.2547    0.3661 C   0  0  0  0  0  0  0  0  0  0  0  0
   -9.4491    6.5630   -0.0254 C   0  0  0  0  0  0  0  0  0  0  0  0
   -8.8762    7.0303   -1.1905 C   0  0  0  0  0  0  0  0  0  0  0  0
   -8.0821    6.2767   -1.9768 N   0  0  0  0  0  0  0  0  0  0  0  0
   -7.7919    5.0274   -1.5403 C   0  0  0  0  0  0  0  0  0  0  0  0
   -4.6879    3.6716    4.5181 C   0  0  0  0  0  0  0  0  0  0  0  0
   -5.0530    3.2048    5.7728 C   0  0  0  0  0  0  0  0  0  0  0  0
   -3.8319    1.4830    8.4361 H   0  0  0  0  0  0  0  0  0  0  0  0
   -5.4282    1.2461    7.6964 H   0  0  0  0  0  0  0  0  0  0  0  0
   -5.0311    2.7901    8.4772 H   0  0  0  0  0  0  0  0  0  0  0  0
   -2.1007    1.8074    6.6664 H   0  0  0  0  0  0  0  0  0  0  0  0
   -1.4398    2.7259    4.4554 H   0  0  0  0  0  0  0  0  0  0  0  0
   -3.7227    2.4176    1.1558 H   0  0  0  0  0  0  0  0  0  0  0  0
   -3.6840    3.9302    0.2386 H   0  0  0  0  0  0  0  0  0  0  0  0
   -5.9373    4.3884    1.5485 H   0  0  0  0  0  0  0  0  0  0  0  0
   -8.0198    2.4997   -0.8040 H   0  0  0  0  0  0  0  0  0  0  0  0
   -8.2810    3.6819    5.3308 H   0  0  0  0  0  0  0  0  0  0  0  0
   -6.5974    6.8611    3.3626 H   0  0  0  0  0  0  0  0  0  0  0  0
  -11.0788    2.1589    1.8117 H   0  0  0  0  0  0  0  0  0  0  0  0
  -12.5161    0.2762    1.4778 H   0  0  0  0  0  0  0  0  0  0  0  0
  -13.9059   -1.0751    0.2687 H   0  0  0  0  0  0  0  0  0  0  0  0
  -13.4155   -1.7809    1.8230 H   0  0  0  0  0  0  0  0  0  0  0  0
  -14.0642   -2.8089    0.5476 H   0  0  0  0  0  0  0  0  0  0  0  0
  -12.4968   -1.5630   -1.8579 H   0  0  0  0  0  0  0  0  0  0  0  0
  -12.8166   -3.2696   -1.5113 H   0  0  0  0  0  0  0  0  0  0  0  0
  -11.1622   -2.7214   -1.7729 H   0  0  0  0  0  0  0  0  0  0  0  0
  -11.3566   -3.2787    1.9669 H   0  0  0  0  0  0  0  0  0  0  0  0
  -10.4496   -3.7057    0.5080 H   0  0  0  0  0  0  0  0  0  0  0  0
  -12.1037   -4.2797    0.7168 H   0  0  0  0  0  0  0  0  0  0  0  0
   -9.3274   -1.7931   -0.5828 H   0  0  0  0  0  0  0  0  0  0  0  0
   -7.8627    0.1312   -0.2263 H   0  0  0  0  0  0  0  0  0  0  0  0
   -9.6560    4.8888    1.2661 H   0  0  0  0  0  0  0  0  0  0  0  0
  -10.0813    7.2036    0.5798 H   0  0  0  0  0  0  0  0  0  0  0  0
   -9.0479    8.0471   -1.5314 H   0  0  0  0  0  0  0  0  0  0  0  0
   -7.1553    4.4638   -2.2205 H   0  0  0  0  0  0  0  0  0  0  0  0
   -5.3841    4.2372    3.9322 H   0  0  0  0  0  0  0  0  0  0  0  0
   -6.0455    3.4061    6.1619 H   0  0  0  0  0  0  0  0  0  0  0  0
  1  2  1  0  0  0  0
  1 40  1  0  0  0  0
  1 41  1  0  0  0  0
  1 42  1  0  0  0  0
  2  3  1  0  0  0  0
  2 39  2  0  0  0  0
  3  4  2  0  0  0  0
  3 43  1  0  0  0  0
  4  5  1  0  0  0  0
  4 44  1  0  0  0  0
  5  6  1  0  0  0  0
  5 38  2  0  0  0  0
  6  7  2  0  0  0  0
  6  8  2  0  0  0  0
  6  9  1  0  0  0  0
  9 10  1  0  0  0  0
  9 45  1  0  0  0  0
  9 46  1  0  0  0  0
 10 11  1  0  0  0  0
 10 47  1  0  0  0  0
 11 12  2  0  0  0  0
 11 13  1  0  0  0  0
 13 14  1  0  0  0  0
 13 32  1  0  0  0  0
 13 48  1  0  0  0  0
 14 15  1  0  0  0  0
 14 22  1  0  0  0  0
 15 16  2  0  0  0  0
 15 17  1  0  0  0  0
 17 18  2  0  0  0  0
 17 21  1  0  0  0  0
 18 19  1  0  0  0  0
 18 49  1  0  0  0  0
 19 20  1  0  0  0  0
 20 21  2  0  0  0  0
 20 50  1  0  0  0  0
 22 23  1  0  0  0  0
 22 31  2  0  0  0  0
 23 24  2  0  0  0  0
 23 51  1  0  0  0  0
 24 25  1  0  0  0  0
 24 52  1  0  0  0  0
 25 26  1  0  0  0  0
 25 30  2  0  0  0  0
 26 27  1  0  0  0  0
 26 28  1  0  0  0  0
 26 29  1  0  0  0  0
 27 53  1  0  0  0  0
 27 54  1  0  0  0  0
 27 55  1  0  0  0  0
 28 56  1  0  0  0  0
 28 57  1  0  0  0  0
 28 58  1  0  0  0  0
 29 59  1  0  0  0  0
 29 60  1  0  0  0  0
 29 61  1  0  0  0  0
 30 31  1  0  0  0  0
 30 62  1  0  0  0  0
 31 63  1  0  0  0  0
 32 33  1  0  0  0  0
 32 37  2  0  0  0  0
 33 34  2  0  0  0  0
 33 64  1  0  0  0  0
 34 35  1  0  0  0  0
 34 65  1  0  0  0  0
 35 36  2  0  0  0  0
 35 66  1  0  0  0  0
 36 37  1  0  0  0  0
 37 67  1  0  0  0  0
 38 39  1  0  0  0  0
 38 68  1  0  0  0  0
 39 69  1  0  0  0  0
M  END
$$$$
