
 OpenBabel07202414143D

 79 78  0  0  1  0  0  0  0  0999 V2000
    7.7510    0.1442    3.1259 C   0  0  0  0  0  0  0  0  0  0  0  0
    7.1077    0.7510    1.9976 O   0  0  0  0  0  0  0  0  0  0  0  0
    7.7204    0.4635    0.8233 C   0  0  0  0  0  0  0  0  0  0  0  0
    8.7217   -0.2225    0.6837 O   0  0  0  0  0  0  0  0  0  0  0  0
    7.0224    1.1178   -0.2996 C   0  0  0  0  0  0  0  0  0  0  0  0
    7.4975    0.9009   -1.5366 C   0  0  0  0  0  0  0  0  0  0  0  0
    6.8543    1.4988   -2.7426 C   0  0  0  0  0  0  0  0  0  0  0  0
    5.6874    1.8749   -2.6509 O   0  0  0  0  0  0  0  0  0  0  0  0
    7.6460    1.6231   -3.8927 N   0  0  0  0  0  0  0  0  0  0  0  0
    7.0881    2.0124   -5.2085 C   0  0  0  0  0  0  0  0  0  0  0  0
    5.9046    2.9718   -5.2152 C   0  0  0  0  0  0  0  0  0  0  0  0
    5.5337    3.3729   -6.6259 C   0  0  0  0  0  0  0  0  0  0  0  0
    4.5214    4.2861   -6.6879 N   0  0  0  0  0  0  0  0  0  0  0  0
    6.0537    2.9464   -7.6482 O   0  0  0  0  0  0  0  0  0  0  0  0
    9.0433    1.1921   -3.9119 N   0  0  0  0  0  0  0  0  0  0  0  0
    9.7394    0.8773   -5.0810 C   0  0  0  0  0  0  0  0  0  0  0  0
    9.2343    0.7719   -6.1993 O   0  0  0  0  0  0  0  0  0  0  0  0
   11.2534    0.6290   -4.9206 C   0  0  1  0  0  0  0  0  0  0  0  0
   11.5768   -0.7231   -4.2426 C   0  0  0  0  0  0  0  0  0  0  0  0
   11.2641   -1.9903   -5.0723 C   0  0  0  0  0  0  0  0  0  0  0  0
   12.0046   -3.2044   -4.4966 C   0  0  0  0  0  0  0  0  0  0  0  0
    9.7721   -2.3178   -5.1062 C   0  0  0  0  0  0  0  0  0  0  0  0
   11.8833    0.7702   -6.2455 N   0  0  0  0  0  0  0  0  0  0  0  0
   13.2468    0.7239   -6.4183 C   0  0  0  0  0  0  0  0  0  0  0  0
   13.9881    0.6304   -5.4426 O   0  0  0  0  0  0  0  0  0  0  0  0
   13.7573    0.7479   -7.8919 C   0  0  1  0  0  0  0  0  0  0  0  0
   13.3660    2.0282   -8.4919 N   0  0  0  0  0  0  0  0  0  0  0  0
   12.6169    2.1053   -9.6414 C   0  0  0  0  0  0  0  0  0  0  0  0
   12.2521    1.1189  -10.2725 O   0  0  0  0  0  0  0  0  0  0  0  0
   12.2879    3.5210  -10.0750 C   0  0  0  0  0  0  0  0  0  0  0  0
   10.8961    3.5962  -10.7092 C   0  0  0  0  0  0  0  0  0  0  0  0
    9.7878    3.1402   -9.7581 C   0  0  0  0  0  0  0  0  0  0  0  0
    9.7357    4.0442   -8.5372 C   0  0  0  0  0  0  0  0  0  0  0  0
    9.6911    4.8196   -7.4899 C   0  0  0  0  0  0  0  0  0  0  0  0
   15.2921    0.4697   -8.0441 C   0  0  0  0  0  0  0  0  0  0  0  0
   15.6050   -0.9703   -7.5799 C   0  0  0  0  0  0  0  0  0  0  0  0
   15.7317    0.5661   -9.5241 C   0  0  0  0  0  0  0  0  0  0  0  0
   16.1540    1.4762   -7.2546 C   0  0  0  0  0  0  0  0  0  0  0  0
    7.2582    0.4884    4.0399 H   0  0  0  0  0  0  0  0  0  0  0  0
    8.8062    0.4359    3.1774 H   0  0  0  0  0  0  0  0  0  0  0  0
    7.6601   -0.9462    3.0737 H   0  0  0  0  0  0  0  0  0  0  0  0
    6.1619    1.7440   -0.0872 H   0  0  0  0  0  0  0  0  0  0  0  0
    8.3331    0.2290   -1.6945 H   0  0  0  0  0  0  0  0  0  0  0  0
    6.8073    1.0845   -5.7219 H   0  0  0  0  0  0  0  0  0  0  0  0
    7.8799    2.5175   -5.7695 H   0  0  0  0  0  0  0  0  0  0  0  0
    6.1534    3.8767   -4.6504 H   0  0  0  0  0  0  0  0  0  0  0  0
    5.0152    2.5076   -4.7797 H   0  0  0  0  0  0  0  0  0  0  0  0
    3.9821    4.5496   -5.8755 H   0  0  0  0  0  0  0  0  0  0  0  0
    4.1804    4.5424   -7.6052 H   0  0  0  0  0  0  0  0  0  0  0  0
    9.5732    1.3957   -3.0697 H   0  0  0  0  0  0  0  0  0  0  0  0
   11.6557    1.4392   -4.2989 H   0  0  0  0  0  0  0  0  0  0  0  0
   11.0771   -0.7832   -3.2685 H   0  0  0  0  0  0  0  0  0  0  0  0
   12.6502   -0.7333   -4.0140 H   0  0  0  0  0  0  0  0  0  0  0  0
   11.6212   -1.8510   -6.0997 H   0  0  0  0  0  0  0  0  0  0  0  0
   11.5613   -3.5269   -3.5482 H   0  0  0  0  0  0  0  0  0  0  0  0
   13.0637   -2.9895   -4.3234 H   0  0  0  0  0  0  0  0  0  0  0  0
   11.9491   -4.0470   -5.1954 H   0  0  0  0  0  0  0  0  0  0  0  0
    9.3764   -2.4464   -4.0930 H   0  0  0  0  0  0  0  0  0  0  0  0
    9.5920   -3.2424   -5.6633 H   0  0  0  0  0  0  0  0  0  0  0  0
    9.1870   -1.5443   -5.5992 H   0  0  0  0  0  0  0  0  0  0  0  0
   11.2665    0.8634   -7.0524 H   0  0  0  0  0  0  0  0  0  0  0  0
   13.2159   -0.0547   -8.4122 H   0  0  0  0  0  0  0  0  0  0  0  0
   13.6763    2.8789   -8.0403 H   0  0  0  0  0  0  0  0  0  0  0  0
   13.0426    3.8362  -10.8043 H   0  0  0  0  0  0  0  0  0  0  0  0
   12.3576    4.2076   -9.2240 H   0  0  0  0  0  0  0  0  0  0  0  0
   10.8640    2.9764  -11.6132 H   0  0  0  0  0  0  0  0  0  0  0  0
   10.7066    4.6296  -11.0281 H   0  0  0  0  0  0  0  0  0  0  0  0
    9.9269    2.1041   -9.4339 H   0  0  0  0  0  0  0  0  0  0  0  0
    8.8204    3.1915  -10.2706 H   0  0  0  0  0  0  0  0  0  0  0  0
    9.6402    5.4554   -6.6370 H   0  0  0  0  0  0  0  0  0  0  0  0
   15.0604   -1.7038   -8.1871 H   0  0  0  0  0  0  0  0  0  0  0  0
   15.3324   -1.1434   -6.5353 H   0  0  0  0  0  0  0  0  0  0  0  0
   16.6735   -1.1933   -7.6760 H   0  0  0  0  0  0  0  0  0  0  0  0
   15.1786   -0.1370  -10.1557 H   0  0  0  0  0  0  0  0  0  0  0  0
   16.7990    0.3316   -9.6267 H   0  0  0  0  0  0  0  0  0  0  0  0
   15.5887    1.5740   -9.9276 H   0  0  0  0  0  0  0  0  0  0  0  0
   15.9680    1.4507   -6.1795 H   0  0  0  0  0  0  0  0  0  0  0  0
   15.9779    2.5019   -7.5953 H   0  0  0  0  0  0  0  0  0  0  0  0
   17.2208    1.2629   -7.3830 H   0  0  0  0  0  0  0  0  0  0  0  0
  1  2  1  0  0  0  0
  1 39  1  0  0  0  0
  1 40  1  0  0  0  0
  1 41  1  0  0  0  0
  2  3  1  0  0  0  0
  3  4  2  0  0  0  0
  3  5  1  0  0  0  0
  5  6  2  0  0  0  0
  5 42  1  0  0  0  0
  6  7  1  0  0  0  0
  6 43  1  0  0  0  0
  7  8  2  0  0  0  0
  7  9  1  0  0  0  0
  9 10  1  0  0  0  0
  9 15  1  0  0  0  0
 10 11  1  0  0  0  0
 10 44  1  0  0  0  0
 10 45  1  0  0  0  0
 11 12  1  0  0  0  0
 11 46  1  0  0  0  0
 11 47  1  0  0  0  0
 12 13  1  0  0  0  0
 12 14  2  0  0  0  0
 13 48  1  0  0  0  0
 13 49  1  0  0  0  0
 15 16  1  0  0  0  0
 15 50  1  0  0  0  0
 16 17  2  0  0  0  0
 16 18  1  0  0  0  0
 18 19  1  0  0  0  0
 18 23  1  0  0  0  0
 18 51  1  1  0  0  0
 19 20  1  0  0  0  0
 19 52  1  0  0  0  0
 19 53  1  0  0  0  0
 20 21  1  0  0  0  0
 20 22  1  0  0  0  0
 20 54  1  0  0  0  0
 21 55  1  0  0  0  0
 21 56  1  0  0  0  0
 21 57  1  0  0  0  0
 22 58  1  0  0  0  0
 22 59  1  0  0  0  0
 22 60  1  0  0  0  0
 23 24  1  0  0  0  0
 23 61  1  0  0  0  0
 24 25  2  0  0  0  0
 24 26  1  0  0  0  0
 26 27  1  0  0  0  0
 26 35  1  0  0  0  0
 26 62  1  6  0  0  0
 27 28  1  0  0  0  0
 27 63  1  0  0  0  0
 28 29  2  0  0  0  0
 28 30  1  0  0  0  0
 30 31  1  0  0  0  0
 30 64  1  0  0  0  0
 30 65  1  0  0  0  0
 31 32  1  0  0  0  0
 31 66  1  0  0  0  0
 31 67  1  0  0  0  0
 32 33  1  0  0  0  0
 32 68  1  0  0  0  0
 32 69  1  0  0  0  0
 33 34  3  0  0  0  0
 34 70  1  0  0  0  0
 35 36  1  0  0  0  0
 35 37  1  0  0  0  0
 35 38  1  0  0  0  0
 36 71  1  0  0  0  0
 36 72  1  0  0  0  0
 36 73  1  0  0  0  0
 37 74  1  0  0  0  0
 37 75  1  0  0  0  0
 37 76  1  0  0  0  0
 38 77  1  0  0  0  0
 38 78  1  0  0  0  0
 38 79  1  0  0  0  0
M  END
$$$$
