
 OpenBabel07202414133D

 49 52  0  0  0  0  0  0  0  0999 V2000
    1.4513   -0.8584    0.0060 C   0  0  0  0  0  0  0  0  0  0  0  0
    2.1539    0.4229    0.0813 N   0  0  0  0  0  0  0  0  0  0  0  0
    2.5169    0.8675    1.4252 C   0  0  0  0  0  0  0  0  0  0  0  0
    2.8551    0.8760   -1.0392 C   0  0  0  0  0  0  0  0  0  0  0  0
    2.4658    0.5250   -2.3444 C   0  0  0  0  0  0  0  0  0  0  0  0
    3.1298    0.9934   -3.4934 C   0  0  0  0  0  0  0  0  0  0  0  0
    4.2324    1.8352   -3.3718 C   0  0  0  0  0  0  0  0  0  0  0  0
    4.8931    2.3137   -4.5507 N   0  0  0  0  0  0  0  0  0  0  0  0
    6.1735    1.6460   -4.8566 C   0  0  0  0  0  0  0  0  0  0  0  0
    6.2493    1.2348   -6.2801 C   0  0  0  0  0  0  0  0  0  0  0  0
    7.3089    1.2349   -7.1688 C   0  0  0  0  0  0  0  0  0  0  0  0
    6.7534    0.8273   -8.3961 C   0  0  0  0  0  0  0  0  0  0  0  0
    5.4519    0.5563   -8.2914 N   0  0  0  0  0  0  0  0  0  0  0  0
    5.1811    0.7679   -6.9966 N   0  0  0  0  0  0  0  0  0  0  0  0
    4.5244    3.5895   -5.0062 C   0  0  0  0  0  0  0  0  0  0  0  0
    3.5399    4.1841   -4.5654 O   0  0  0  0  0  0  0  0  0  0  0  0
    5.3235    4.2764   -6.1150 C   0  0  0  0  0  0  0  0  0  0  0  0
    6.5724    4.8646   -5.6741 N   0  0  0  0  0  0  0  0  0  0  0  0
    7.6355    4.7809   -6.5044 N   0  0  0  0  0  0  0  0  0  0  0  0
    8.7227    4.7251   -5.7481 N   0  0  0  0  0  0  0  0  0  0  0  0
    8.3341    4.8884   -4.4480 C   0  0  0  0  0  0  0  0  0  0  0  0
    9.0622    4.7689   -3.2559 C   0  0  0  0  0  0  0  0  0  0  0  0
    8.3932    4.9823   -2.0453 C   0  0  0  0  0  0  0  0  0  0  0  0
    7.0479    5.3676   -2.0272 C   0  0  0  0  0  0  0  0  0  0  0  0
    6.3035    5.4660   -3.2061 C   0  0  0  0  0  0  0  0  0  0  0  0
    6.9729    5.1535   -4.3919 C   0  0  0  0  0  0  0  0  0  0  0  0
    4.6511    2.1974   -2.0934 C   0  0  0  0  0  0  0  0  0  0  0  0
    3.9603    1.7395   -0.9512 C   0  0  0  0  0  0  0  0  0  0  0  0
    1.0323   -1.1476    0.9768 H   0  0  0  0  0  0  0  0  0  0  0  0
    2.1275   -1.6592   -0.3062 H   0  0  0  0  0  0  0  0  0  0  0  0
    0.5999   -0.8055   -0.6838 H   0  0  0  0  0  0  0  0  0  0  0  0
    1.8284    0.4704    2.1761 H   0  0  0  0  0  0  0  0  0  0  0  0
    2.4589    1.9612    1.5048 H   0  0  0  0  0  0  0  0  0  0  0  0
    3.5254    0.5327    1.6956 H   0  0  0  0  0  0  0  0  0  0  0  0
    1.5874   -0.1099   -2.5028 H   0  0  0  0  0  0  0  0  0  0  0  0
    2.7571    0.7069   -4.4705 H   0  0  0  0  0  0  0  0  0  0  0  0
    6.2890    0.7564   -4.2257 H   0  0  0  0  0  0  0  0  0  0  0  0
    6.9868    2.3286   -4.6108 H   0  0  0  0  0  0  0  0  0  0  0  0
    8.3296    1.5367   -6.9734 H   0  0  0  0  0  0  0  0  0  0  0  0
    7.2419    0.7308   -9.3581 H   0  0  0  0  0  0  0  0  0  0  0  0
    4.2257    0.6362   -6.6768 H   0  0  0  0  0  0  0  0  0  0  0  0
    4.7229    5.0798   -6.5528 H   0  0  0  0  0  0  0  0  0  0  0  0
    5.5336    3.5774   -6.9228 H   0  0  0  0  0  0  0  0  0  0  0  0
   10.1070    4.4793   -3.2800 H   0  0  0  0  0  0  0  0  0  0  0  0
    8.9283    4.8526   -1.1082 H   0  0  0  0  0  0  0  0  0  0  0  0
    6.5592    5.5593   -1.0736 H   0  0  0  0  0  0  0  0  0  0  0  0
    5.2464    5.7196   -3.1823 H   0  0  0  0  0  0  0  0  0  0  0  0
    5.5040    2.8588   -1.9590 H   0  0  0  0  0  0  0  0  0  0  0  0
    4.3200    2.0782    0.0134 H   0  0  0  0  0  0  0  0  0  0  0  0
  1  2  1  0  0  0  0
  1 29  1  0  0  0  0
  1 30  1  0  0  0  0
  1 31  1  0  0  0  0
  2  3  1  0  0  0  0
  2  4  1  0  0  0  0
  3 32  1  0  0  0  0
  3 33  1  0  0  0  0
  3 34  1  0  0  0  0
  4  5  1  0  0  0  0
  4 28  2  0  0  0  0
  5  6  2  0  0  0  0
  5 35  1  0  0  0  0
  6  7  1  0  0  0  0
  6 36  1  0  0  0  0
  7  8  1  0  0  0  0
  7 27  2  0  0  0  0
  8  9  1  0  0  0  0
  8 15  1  0  0  0  0
  9 10  1  0  0  0  0
  9 37  1  0  0  0  0
  9 38  1  0  0  0  0
 10 11  2  0  0  0  0
 10 14  1  0  0  0  0
 11 12  1  0  0  0  0
 11 39  1  0  0  0  0
 12 13  2  0  0  0  0
 12 40  1  0  0  0  0
 13 14  1  0  0  0  0
 14 41  1  0  0  0  0
 15 16  2  0  0  0  0
 15 17  1  0  0  0  0
 17 18  1  0  0  0  0
 17 42  1  0  0  0  0
 17 43  1  0  0  0  0
 18 19  1  0  0  0  0
 18 26  1  0  0  0  0
 19 20  2  0  0  0  0
 20 21  1  0  0  0  0
 21 22  1  0  0  0  0
 21 26  2  0  0  0  0
 22 23  2  0  0  0  0
 22 44  1  0  0  0  0
 23 24  1  0  0  0  0
 23 45  1  0  0  0  0
 24 25  2  0  0  0  0
 24 46  1  0  0  0  0
 25 26  1  0  0  0  0
 25 47  1  0  0  0  0
 27 28  1  0  0  0  0
 27 48  1  0  0  0  0
 28 49  1  0  0  0  0
M  END
$$$$
