
 OpenBabel07202414143D

 53 56  0  0  1  0  0  0  0  0999 V2000
    2.7842   -2.7147   -2.6085 C   0  0  0  0  0  0  0  0  0  0  0  0
    3.0849   -1.3965   -2.1141 N   0  0  0  0  0  0  0  0  0  0  0  0
    4.3254   -1.1067   -1.5905 C   0  0  0  0  0  0  0  0  0  0  0  0
    5.2216   -1.9397   -1.4775 O   0  0  0  0  0  0  0  0  0  0  0  0
    4.5285    0.3479   -1.2082 C   0  0  0  0  0  0  0  0  0  0  0  0
    4.9198    1.2015   -2.3863 N   0  0  0  0  0  0  0  0  0  0  0  0
    6.2555    0.8000   -2.9349 C   0  0  0  0  0  0  0  0  0  0  0  0
    6.5403    1.4661   -4.3034 C   0  0  3  0  0  0  0  0  0  0  0  0
    8.0578    1.2337   -4.5547 C   0  0  0  0  0  0  0  0  0  0  0  0
    5.7491    0.7108   -5.4137 C   0  0  0  0  0  0  0  0  0  0  0  0
    6.3364    0.2010   -6.3647 O   0  0  0  0  0  0  0  0  0  0  0  0
    4.3713    0.6981   -5.2487 N   0  0  0  0  0  0  0  0  0  0  0  0
    3.4001    0.2153   -6.1758 C   0  0  0  0  0  0  0  0  0  0  0  0
    3.7437   -0.3563   -7.4061 C   0  0  0  0  0  0  0  0  0  0  0  0
    2.8666   -0.7018   -8.3788 N   0  0  0  0  0  0  0  0  0  0  0  0
    1.5629   -0.5164   -8.1063 C   0  0  0  0  0  0  0  0  0  0  0  0
    1.0736   -0.0674   -6.8830 C   0  0  0  0  0  0  0  0  0  0  0  0
   -0.3129   -0.0162   -6.6507 C   0  0  0  0  0  0  0  0  0  0  0  0
   -0.8098    0.3925   -5.4180 C   0  0  0  0  0  0  0  0  0  0  0  0
    0.0721    0.7929   -4.4233 C   0  0  0  0  0  0  0  0  0  0  0  0
    1.4535    0.7759   -4.6567 C   0  0  0  0  0  0  0  0  0  0  0  0
    2.0022    0.3183   -5.8831 C   0  0  0  0  0  0  0  0  0  0  0  0
    6.2422    2.9769   -4.3573 C   0  0  0  0  0  0  0  0  0  0  0  0
    6.7034    3.7446   -5.4509 C   0  0  0  0  0  0  0  0  0  0  0  0
    6.4846    5.1255   -5.5192 C   0  0  0  0  0  0  0  0  0  0  0  0
    7.1247    6.0289   -6.8357 Cl  0  0  0  0  0  0  0  0  0  0  0  0
    5.7667    5.7774   -4.5238 C   0  0  0  0  0  0  0  0  0  0  0  0
    5.2768    5.0454   -3.4459 C   0  0  0  0  0  0  0  0  0  0  0  0
    5.5259    3.6654   -3.3602 C   0  0  0  0  0  0  0  0  0  0  0  0
    4.9085    2.8493   -1.9204 S   0  0  0  0  0  0  0  0  0  0  0  0
    3.5179    3.2071   -1.7538 O   0  0  0  0  0  0  0  0  0  0  0  0
    5.8859    3.0211   -0.8701 O   0  0  0  0  0  0  0  0  0  0  0  0
    1.7134   -2.7778   -2.8095 H   0  0  0  0  0  0  0  0  0  0  0  0
    3.0709   -3.4623   -1.8633 H   0  0  0  0  0  0  0  0  0  0  0  0
    3.3494   -2.8840   -3.5286 H   0  0  0  0  0  0  0  0  0  0  0  0
    2.4430   -0.6421   -2.3237 H   0  0  0  0  0  0  0  0  0  0  0  0
    5.2963    0.3904   -0.4271 H   0  0  0  0  0  0  0  0  0  0  0  0
    3.5895    0.7149   -0.7786 H   0  0  0  0  0  0  0  0  0  0  0  0
    6.2952   -0.2867   -3.0621 H   0  0  0  0  0  0  0  0  0  0  0  0
    7.0322    1.0549   -2.2010 H   0  0  0  0  0  0  0  0  0  0  0  0
    8.3168    0.1746   -4.4307 H   0  0  0  0  0  0  0  0  0  0  0  0
    8.6715    1.8137   -3.8557 H   0  0  0  0  0  0  0  0  0  0  0  0
    8.3685    1.5066   -5.5694 H   0  0  0  0  0  0  0  0  0  0  0  0
    4.0191    1.1296   -4.4028 H   0  0  0  0  0  0  0  0  0  0  0  0
    4.7685   -0.5743   -7.6829 H   0  0  0  0  0  0  0  0  0  0  0  0
    0.8961   -0.7619   -8.9297 H   0  0  0  0  0  0  0  0  0  0  0  0
   -1.0147   -0.3174   -7.4267 H   0  0  0  0  0  0  0  0  0  0  0  0
   -1.8818    0.3980   -5.2376 H   0  0  0  0  0  0  0  0  0  0  0  0
   -0.3133    1.1212   -3.4611 H   0  0  0  0  0  0  0  0  0  0  0  0
    2.0899    1.1147   -3.8461 H   0  0  0  0  0  0  0  0  0  0  0  0
    7.2553    3.2748   -6.2647 H   0  0  0  0  0  0  0  0  0  0  0  0
    5.5925    6.8493   -4.5773 H   0  0  0  0  0  0  0  0  0  0  0  0
    4.7168    5.5570   -2.6637 H   0  0  0  0  0  0  0  0  0  0  0  0
  1  2  1  0  0  0  0
  1 33  1  0  0  0  0
  1 34  1  0  0  0  0
  1 35  1  0  0  0  0
  2  3  1  0  0  0  0
  2 36  1  0  0  0  0
  3  4  2  0  0  0  0
  3  5  1  0  0  0  0
  5  6  1  0  0  0  0
  5 37  1  0  0  0  0
  5 38  1  0  0  0  0
  6  7  1  0  0  0  0
  6 30  1  0  0  0  0
  7  8  1  0  0  0  0
  7 39  1  0  0  0  0
  7 40  1  0  0  0  0
  8  9  1  0  0  0  0
  8 10  1  0  0  0  0
  8 23  1  0  0  0  0
  9 41  1  0  0  0  0
  9 42  1  0  0  0  0
  9 43  1  0  0  0  0
 10 11  2  0  0  0  0
 10 12  1  0  0  0  0
 12 13  1  0  0  0  0
 12 44  1  0  0  0  0
 13 14  1  0  0  0  0
 13 22  2  0  0  0  0
 14 15  2  0  0  0  0
 14 45  1  0  0  0  0
 15 16  1  0  0  0  0
 16 17  2  0  0  0  0
 16 46  1  0  0  0  0
 17 18  1  0  0  0  0
 17 22  1  0  0  0  0
 18 19  2  0  0  0  0
 18 47  1  0  0  0  0
 19 20  1  0  0  0  0
 19 48  1  0  0  0  0
 20 21  2  0  0  0  0
 20 49  1  0  0  0  0
 21 22  1  0  0  0  0
 21 50  1  0  0  0  0
 23 24  1  0  0  0  0
 23 29  2  0  0  0  0
 24 25  2  0  0  0  0
 24 51  1  0  0  0  0
 25 26  1  0  0  0  0
 25 27  1  0  0  0  0
 27 28  2  0  0  0  0
 27 52  1  0  0  0  0
 28 29  1  0  0  0  0
 28 53  1  0  0  0  0
 29 30  1  0  0  0  0
 30 31  2  0  0  0  0
 30 32  2  0  0  0  0
M  END
$$$$
