
 OpenBabel07202414203D

 50 52  0  0  0  0  0  0  0  0999 V2000
    1.1317   -0.1456   -0.6580 C   0  0  0  0  0  0  0  0  0  0  0  0
    0.3352   -1.2908   -0.5738 C   0  0  0  0  0  0  0  0  0  0  0  0
   -0.9274   -1.1992    0.0093 C   0  0  0  0  0  0  0  0  0  0  0  0
   -1.4157    0.0178    0.4697 C   0  0  0  0  0  0  0  0  0  0  0  0
   -0.6097    1.1471    0.3743 C   0  0  0  0  0  0  0  0  0  0  0  0
    0.6804    1.0932   -0.1763 C   0  0  0  0  0  0  0  0  0  0  0  0
    1.4408    2.2442   -0.2673 N   0  0  0  0  0  0  0  0  0  0  0  0
    1.4667    3.1911    0.8510 C   0  0  0  0  0  0  0  0  0  0  0  0
    1.3070    4.5995    0.3086 C   0  0  0  0  0  0  0  0  0  0  0  0
    2.3641    4.9442   -0.7574 C   0  0  0  0  0  0  0  0  0  0  0  0
    2.3411    3.8741   -1.8672 C   0  0  0  0  0  0  0  0  0  0  0  0
    2.3739    2.4275   -1.3782 C   0  0  0  0  0  0  0  0  0  0  0  0
    3.7057    5.3054   -0.2359 N   0  0  0  0  0  0  0  0  0  0  0  0
    3.6733    6.4691    0.6498 C   0  0  0  0  0  0  0  0  0  0  0  0
    4.9537    7.3068    0.6011 C   0  0  0  0  0  0  0  0  0  0  0  0
    6.0956    6.7978    1.4708 C   0  0  0  0  0  0  0  0  0  0  0  0
    6.6016    5.4137    1.1018 C   0  0  0  0  0  0  0  0  0  0  0  0
    5.5470    4.3437    1.3063 C   0  0  0  0  0  0  0  0  0  0  0  0
    4.5890    4.2022    0.1269 C   0  0  0  0  0  0  0  0  0  0  0  0
   -1.9128   -2.6437    0.2191 S   0  0  0  0  0  0  0  0  0  0  0  0
   -3.2998   -2.2632    0.3659 O   0  0  0  0  0  0  0  0  0  0  0  0
   -1.4771   -3.6649   -0.7012 O   0  0  0  0  0  0  0  0  0  0  0  0
   -1.3984   -3.1271    1.7409 N   0  0  0  0  0  0  0  0  0  0  0  0
    2.1288   -0.2435   -1.0812 H   0  0  0  0  0  0  0  0  0  0  0  0
    0.7147   -2.2401   -0.9416 H   0  0  0  0  0  0  0  0  0  0  0  0
   -2.4058    0.1003    0.9099 H   0  0  0  0  0  0  0  0  0  0  0  0
   -1.0203    2.0928    0.7167 H   0  0  0  0  0  0  0  0  0  0  0  0
    2.3830    3.0799    1.4375 H   0  0  0  0  0  0  0  0  0  0  0  0
    0.6710    3.0152    1.5831 H   0  0  0  0  0  0  0  0  0  0  0  0
    1.3038    5.3227    1.1300 H   0  0  0  0  0  0  0  0  0  0  0  0
    0.3133    4.6761   -0.1557 H   0  0  0  0  0  0  0  0  0  0  0  0
    2.0024    5.8557   -1.2563 H   0  0  0  0  0  0  0  0  0  0  0  0
    3.1402    4.0480   -2.5968 H   0  0  0  0  0  0  0  0  0  0  0  0
    1.4001    4.0032   -2.4230 H   0  0  0  0  0  0  0  0  0  0  0  0
    3.3822    2.1049   -1.1036 H   0  0  0  0  0  0  0  0  0  0  0  0
    2.0917    1.8022   -2.2353 H   0  0  0  0  0  0  0  0  0  0  0  0
    3.4177    6.1905    1.6789 H   0  0  0  0  0  0  0  0  0  0  0  0
    2.8746    7.1457    0.3154 H   0  0  0  0  0  0  0  0  0  0  0  0
    4.7059    8.3187    0.9470 H   0  0  0  0  0  0  0  0  0  0  0  0
    5.2925    7.4172   -0.4367 H   0  0  0  0  0  0  0  0  0  0  0  0
    5.7816    6.8037    2.5223 H   0  0  0  0  0  0  0  0  0  0  0  0
    6.9318    7.5024    1.3945 H   0  0  0  0  0  0  0  0  0  0  0  0
    7.4569    5.1802    1.7472 H   0  0  0  0  0  0  0  0  0  0  0  0
    6.9716    5.3980    0.0702 H   0  0  0  0  0  0  0  0  0  0  0  0
    4.9905    4.5047    2.2385 H   0  0  0  0  0  0  0  0  0  0  0  0
    6.0554    3.3783    1.4300 H   0  0  0  0  0  0  0  0  0  0  0  0
    4.0234    3.3135    0.3824 H   0  0  0  0  0  0  0  0  0  0  0  0
    5.1671    3.9333   -0.7657 H   0  0  0  0  0  0  0  0  0  0  0  0
   -2.1566   -3.0554    2.4167 H   0  0  0  0  0  0  0  0  0  0  0  0
   -0.9383   -4.0341    1.6911 H   0  0  0  0  0  0  0  0  0  0  0  0
  1  2  1  0  0  0  0
  1  6  2  0  0  0  0
  1 24  1  0  0  0  0
  2  3  2  0  0  0  0
  2 25  1  0  0  0  0
  3  4  1  0  0  0  0
  3 20  1  0  0  0  0
  4  5  2  0  0  0  0
  4 26  1  0  0  0  0
  5  6  1  0  0  0  0
  5 27  1  0  0  0  0
  6  7  1  0  0  0  0
  7  8  1  0  0  0  0
  7 12  1  0  0  0  0
  8  9  1  0  0  0  0
  8 28  1  0  0  0  0
  8 29  1  0  0  0  0
  9 10  1  0  0  0  0
  9 30  1  0  0  0  0
  9 31  1  0  0  0  0
 10 11  1  0  0  0  0
 10 13  1  0  0  0  0
 10 32  1  0  0  0  0
 11 12  1  0  0  0  0
 11 33  1  0  0  0  0
 11 34  1  0  0  0  0
 12 35  1  0  0  0  0
 12 36  1  0  0  0  0
 13 14  1  0  0  0  0
 13 19  1  0  0  0  0
 14 15  1  0  0  0  0
 14 37  1  0  0  0  0
 14 38  1  0  0  0  0
 15 16  1  0  0  0  0
 15 39  1  0  0  0  0
 15 40  1  0  0  0  0
 16 17  1  0  0  0  0
 16 41  1  0  0  0  0
 16 42  1  0  0  0  0
 17 18  1  0  0  0  0
 17 43  1  0  0  0  0
 17 44  1  0  0  0  0
 18 19  1  0  0  0  0
 18 45  1  0  0  0  0
 18 46  1  0  0  0  0
 19 47  1  0  0  0  0
 19 48  1  0  0  0  0
 20 21  2  0  0  0  0
 20 22  2  0  0  0  0
 20 23  1  0  0  0  0
 23 49  1  0  0  0  0
 23 50  1  0  0  0  0
M  END
$$$$
