
 OpenBabel07202414133D

 76 81  0  0  1  0  0  0  0  0999 V2000
    0.5052   -0.1769   -0.5538 C   0  0  0  0  0  0  0  0  0  0  0  0
    1.9161   -0.6767   -0.2569 C   0  0  0  0  0  0  0  0  0  0  0  0
    2.6110   -1.2085   -1.4424 N   0  0  0  0  0  0  0  0  0  0  0  0
    2.7605   -0.1869   -2.4842 C   0  0  0  0  0  0  0  0  0  0  0  0
    3.9206   -1.7699   -1.0351 C   0  0  0  0  0  0  0  0  0  0  0  0
    4.6909   -2.3885   -2.2059 C   0  0  0  0  0  0  0  0  0  0  0  0
    5.9159   -2.9675   -1.7603 O   0  0  0  0  0  0  0  0  0  0  0  0
    6.6983   -3.4649   -2.7721 C   0  0  0  0  0  0  0  0  0  0  0  0
    6.3470   -3.5314   -4.1197 C   0  0  0  0  0  0  0  0  0  0  0  0
    7.2521   -4.0186   -5.0571 C   0  0  0  0  0  0  0  0  0  0  0  0
    8.5226   -4.4435   -4.6566 C   0  0  0  0  0  0  0  0  0  0  0  0
    9.4627   -4.8442   -5.6040 C   0  0  0  0  0  0  0  0  0  0  0  0
   10.7312   -5.1817   -5.3133 N   0  0  0  0  0  0  0  0  0  0  0  0
   11.0648   -5.1499   -4.0041 C   0  0  0  0  0  0  0  0  0  0  0  0
   10.1888   -4.8470   -2.9493 C   0  0  0  0  0  0  0  0  0  0  0  0
   10.6881   -5.0467   -1.6459 N   0  0  0  0  0  0  0  0  0  0  0  0
   10.0207   -5.5151   -0.4756 C   0  0  0  0  0  0  0  0  0  0  0  0
   11.1768   -5.8916    0.4710 C   0  0  0  0  0  0  0  0  0  0  0  0
   12.4611   -5.2349   -0.1422 C   0  0  3  0  0  0  0  0  0  0  0  0
   13.2115   -4.3688    0.8823 C   0  0  0  0  0  0  0  0  0  0  0  0
   14.6158   -4.0346    0.5028 N   0  0  0  0  0  0  0  0  0  0  0  0
   14.9707   -2.9401   -0.7616 S   0  0  0  0  0  0  0  0  0  0  0  0
   16.4009   -2.7434   -0.6767 O   0  0  0  0  0  0  0  0  0  0  0  0
   14.4037   -3.4534   -1.9840 O   0  0  0  0  0  0  0  0  0  0  0  0
   14.1907   -1.3755   -0.2421 C   0  0  0  0  0  0  0  0  0  0  0  0
   14.3234   -0.4357   -1.4283 C   0  0  0  0  0  0  0  0  0  0  0  0
   15.6663   -0.2039   -1.8953 C   0  0  0  0  0  0  0  0  0  0  0  0
   16.7337    0.0437   -2.2780 N   0  0  0  0  0  0  0  0  0  0  0  0
   13.1964   -0.3356   -2.4291 C   0  0  0  0  0  0  0  0  0  0  0  0
   13.4337    0.8022   -1.4924 C   0  0  0  0  0  0  0  0  0  0  0  0
   15.4216   -5.2800    0.3755 C   0  0  0  0  0  0  0  0  0  0  0  0
   14.7729   -6.3163   -0.5137 C   0  0  0  0  0  0  0  0  0  0  0  0
   15.5926   -7.3090   -1.0852 C   0  0  0  0  0  0  0  0  0  0  0  0
   15.0558   -8.2940   -1.9109 C   0  0  0  0  0  0  0  0  0  0  0  0
   13.6921   -8.3004   -2.1602 C   0  0  0  0  0  0  0  0  0  0  0  0
   13.0075   -9.5123   -3.1720 Cl  0  0  0  0  0  0  0  0  0  0  0  0
   12.8641   -7.3323   -1.5915 C   0  0  0  0  0  0  0  0  0  0  0  0
   13.3798   -6.3158   -0.7601 C   0  0  0  0  0  0  0  0  0  0  0  0
   11.7913   -4.3454   -1.1832 C   0  0  0  0  0  0  0  0  0  0  0  0
   11.9514   -3.1498   -1.3736 O   0  0  0  0  0  0  0  0  0  0  0  0
    8.8885   -4.4339   -3.2874 C   0  0  0  0  0  0  0  0  0  0  0  0
    7.9532   -3.9162   -2.3682 C   0  0  0  0  0  0  0  0  0  0  0  0
    0.0114    0.1238    0.3751 H   0  0  0  0  0  0  0  0  0  0  0  0
   -0.0993   -0.9595   -1.0239 H   0  0  0  0  0  0  0  0  0  0  0  0
    0.5093    0.6996   -1.2088 H   0  0  0  0  0  0  0  0  0  0  0  0
    1.8247   -1.4757    0.4900 H   0  0  0  0  0  0  0  0  0  0  0  0
    2.4975    0.1314    0.2044 H   0  0  0  0  0  0  0  0  0  0  0  0
    1.7916    0.1914   -2.8202 H   0  0  0  0  0  0  0  0  0  0  0  0
    3.2050   -0.6021   -3.3938 H   0  0  0  0  0  0  0  0  0  0  0  0
    3.3736    0.6552   -2.1464 H   0  0  0  0  0  0  0  0  0  0  0  0
    3.7659   -2.5589   -0.2863 H   0  0  0  0  0  0  0  0  0  0  0  0
    4.5463   -1.0104   -0.5473 H   0  0  0  0  0  0  0  0  0  0  0  0
    4.9343   -1.6042   -2.9301 H   0  0  0  0  0  0  0  0  0  0  0  0
    4.0675   -3.1641   -2.6665 H   0  0  0  0  0  0  0  0  0  0  0  0
    5.3852   -3.1890   -4.4863 H   0  0  0  0  0  0  0  0  0  0  0  0
    6.9655   -4.0312   -6.1067 H   0  0  0  0  0  0  0  0  0  0  0  0
    9.2232   -4.8747   -6.6648 H   0  0  0  0  0  0  0  0  0  0  0  0
   12.0973   -5.4393   -3.8147 H   0  0  0  0  0  0  0  0  0  0  0  0
    9.3369   -6.3414   -0.6794 H   0  0  0  0  0  0  0  0  0  0  0  0
    9.4827   -4.6821   -0.0102 H   0  0  0  0  0  0  0  0  0  0  0  0
   11.2597   -6.9823    0.5450 H   0  0  0  0  0  0  0  0  0  0  0  0
   10.9649   -5.5311    1.4844 H   0  0  0  0  0  0  0  0  0  0  0  0
   13.2822   -4.9293    1.8260 H   0  0  0  0  0  0  0  0  0  0  0  0
   12.6669   -3.4532    1.1446 H   0  0  0  0  0  0  0  0  0  0  0  0
   14.7486   -1.0068    0.6220 H   0  0  0  0  0  0  0  0  0  0  0  0
   13.1499   -1.5357    0.0413 H   0  0  0  0  0  0  0  0  0  0  0  0
   12.2838   -0.9148   -2.2832 H   0  0  0  0  0  0  0  0  0  0  0  0
   13.4518   -0.2269   -3.4799 H   0  0  0  0  0  0  0  0  0  0  0  0
   12.6997    0.9805   -0.7131 H   0  0  0  0  0  0  0  0  0  0  0  0
   13.8395    1.7166   -1.9165 H   0  0  0  0  0  0  0  0  0  0  0  0
   15.5663   -5.7058    1.3770 H   0  0  0  0  0  0  0  0  0  0  0  0
   16.4278   -5.0525    0.0055 H   0  0  0  0  0  0  0  0  0  0  0  0
   16.6677   -7.3083   -0.9022 H   0  0  0  0  0  0  0  0  0  0  0  0
   15.7032   -9.0435   -2.3573 H   0  0  0  0  0  0  0  0  0  0  0  0
   11.8026   -7.3875   -1.8154 H   0  0  0  0  0  0  0  0  0  0  0  0
    8.2105   -3.7824   -1.3260 H   0  0  0  0  0  0  0  0  0  0  0  0
  1  2  1  0  0  0  0
  1 43  1  0  0  0  0
  1 44  1  0  0  0  0
  1 45  1  0  0  0  0
  2  3  1  0  0  0  0
  2 46  1  0  0  0  0
  2 47  1  0  0  0  0
  3  4  1  0  0  0  0
  3  5  1  0  0  0  0
  4 48  1  0  0  0  0
  4 49  1  0  0  0  0
  4 50  1  0  0  0  0
  5  6  1  0  0  0  0
  5 51  1  0  0  0  0
  5 52  1  0  0  0  0
  6  7  1  0  0  0  0
  6 53  1  0  0  0  0
  6 54  1  0  0  0  0
  7  8  1  0  0  0  0
  8  9  1  0  0  0  0
  8 42  2  0  0  0  0
  9 10  2  0  0  0  0
  9 55  1  0  0  0  0
 10 11  1  0  0  0  0
 10 56  1  0  0  0  0
 11 12  1  0  0  0  0
 11 41  2  0  0  0  0
 12 13  2  0  0  0  0
 12 57  1  0  0  0  0
 13 14  1  0  0  0  0
 14 15  2  0  0  0  0
 14 58  1  0  0  0  0
 15 16  1  0  0  0  0
 15 41  1  0  0  0  0
 16 17  1  0  0  0  0
 16 39  1  0  0  0  0
 17 18  1  0  0  0  0
 17 59  1  0  0  0  0
 17 60  1  0  0  0  0
 18 19  1  0  0  0  0
 18 61  1  0  0  0  0
 18 62  1  0  0  0  0
 19 20  1  0  0  0  0
 19 38  1  0  0  0  0
 19 39  1  0  0  0  0
 20 21  1  0  0  0  0
 20 63  1  0  0  0  0
 20 64  1  0  0  0  0
 21 22  1  0  0  0  0
 21 31  1  0  0  0  0
 22 23  2  0  0  0  0
 22 24  2  0  0  0  0
 22 25  1  0  0  0  0
 25 26  1  0  0  0  0
 25 65  1  0  0  0  0
 25 66  1  0  0  0  0
 26 27  1  0  0  0  0
 26 29  1  0  0  0  0
 26 30  1  0  0  0  0
 27 28  3  0  0  0  0
 29 30  1  0  0  0  0
 29 67  1  0  0  0  0
 29 68  1  0  0  0  0
 30 69  1  0  0  0  0
 30 70  1  0  0  0  0
 31 32  1  0  0  0  0
 31 71  1  0  0  0  0
 31 72  1  0  0  0  0
 32 33  1  0  0  0  0
 32 38  2  0  0  0  0
 33 34  2  0  0  0  0
 33 73  1  0  0  0  0
 34 35  1  0  0  0  0
 34 74  1  0  0  0  0
 35 36  1  0  0  0  0
 35 37  2  0  0  0  0
 37 38  1  0  0  0  0
 37 75  1  0  0  0  0
 39 40  2  0  0  0  0
 41 42  1  0  0  0  0
 42 76  1  0  0  0  0
M  END
$$$$
