
 OpenBabel07202414173D

 53 57  0  0  1  0  0  0  0  0999 V2000
    1.0158    0.2561   -0.2485 Cl  0  0  0  0  0  0  0  0  0  0  0  0
    2.7226    0.1511   -0.0657 C   0  0  0  0  0  0  0  0  0  0  0  0
    3.5050    1.2997   -0.1625 C   0  0  0  0  0  0  0  0  0  0  0  0
    4.8919    1.2195    0.0120 C   0  0  0  0  0  0  0  0  0  0  0  0
    5.4914   -0.0166    0.2624 C   0  0  0  0  0  0  0  0  0  0  0  0
    4.6918   -1.1907    0.3214 C   0  0  0  0  0  0  0  0  0  0  0  0
    3.3061   -1.0909    0.1749 C   0  0  0  0  0  0  0  0  0  0  0  0
    5.3455   -2.5449    0.5413 C   0  0  3  0  0  0  0  0  0  0  0  0
    5.3388   -2.9618    2.0215 C   0  0  0  0  0  0  0  0  0  0  0  0
    5.3955   -2.1340    2.9272 O   0  0  0  0  0  0  0  0  0  0  0  0
    5.2330   -4.3328    2.1974 N   0  0  0  0  0  0  0  0  0  0  0  0
    5.2314   -5.0466    3.4287 C   0  0  0  0  0  0  0  0  0  0  0  0
    5.2942   -4.4210    4.6734 C   0  0  0  0  0  0  0  0  0  0  0  0
    5.5248   -5.0638    5.8434 N   0  0  0  0  0  0  0  0  0  0  0  0
    5.6500   -6.4040    5.7804 C   0  0  0  0  0  0  0  0  0  0  0  0
    5.4478   -7.1610    4.6286 C   0  0  0  0  0  0  0  0  0  0  0  0
    5.4531   -8.5666    4.6699 C   0  0  0  0  0  0  0  0  0  0  0  0
    5.1778   -9.3132    3.5272 C   0  0  0  0  0  0  0  0  0  0  0  0
    4.9188   -8.6633    2.3284 C   0  0  0  0  0  0  0  0  0  0  0  0
    4.9477   -7.2662    2.2679 C   0  0  0  0  0  0  0  0  0  0  0  0
    5.2167   -6.4712    3.4134 C   0  0  0  0  0  0  0  0  0  0  0  0
    6.7433   -2.4481   -0.0662 C   0  0  0  0  0  0  0  0  0  0  0  0
    7.5096   -1.3763    0.5590 N   0  0  0  0  0  0  0  0  0  0  0  0
    8.6330   -1.6346    1.4716 C   0  0  0  0  0  0  0  0  0  0  0  0
    8.8963   -3.0680    1.9723 C   0  0  0  0  0  0  0  0  0  0  0  0
    8.2233   -4.0472    1.6619 O   0  0  0  0  0  0  0  0  0  0  0  0
    9.9882   -3.1860    2.8150 N   0  0  0  0  0  0  0  0  0  0  0  0
   10.3376   -4.4658    3.3463 C   0  0  0  0  0  0  0  0  0  0  0  0
    9.6969   -4.9379    4.6226 C   0  0  0  0  0  0  0  0  0  0  0  0
   11.1672   -4.6367    4.5818 C   0  0  0  0  0  0  0  0  0  0  0  0
    6.9583   -0.0904    0.5642 C   0  0  0  0  0  0  0  0  0  0  0  0
    7.5892    0.9136    0.8696 O   0  0  0  0  0  0  0  0  0  0  0  0
    3.0441    2.2648   -0.3581 H   0  0  0  0  0  0  0  0  0  0  0  0
    5.4987    2.1198   -0.0379 H   0  0  0  0  0  0  0  0  0  0  0  0
    2.6846   -1.9770    0.2531 H   0  0  0  0  0  0  0  0  0  0  0  0
    4.7792   -3.2873   -0.0341 H   0  0  0  0  0  0  0  0  0  0  0  0
    5.4168   -4.8992    1.3804 H   0  0  0  0  0  0  0  0  0  0  0  0
    5.1703   -3.3506    4.7952 H   0  0  0  0  0  0  0  0  0  0  0  0
    5.9041   -6.8745    6.7257 H   0  0  0  0  0  0  0  0  0  0  0  0
    5.6393   -9.0888    5.6060 H   0  0  0  0  0  0  0  0  0  0  0  0
    5.1457  -10.3985    3.5792 H   0  0  0  0  0  0  0  0  0  0  0  0
    4.6794   -9.2406    1.4388 H   0  0  0  0  0  0  0  0  0  0  0  0
    4.7022   -6.8093    1.3140 H   0  0  0  0  0  0  0  0  0  0  0  0
    6.6393   -2.1568   -1.1237 H   0  0  0  0  0  0  0  0  0  0  0  0
    7.2795   -3.3920   -0.1167 H   0  0  0  0  0  0  0  0  0  0  0  0
    8.4709   -1.0174    2.3657 H   0  0  0  0  0  0  0  0  0  0  0  0
    9.5376   -1.2636    0.9783 H   0  0  0  0  0  0  0  0  0  0  0  0
   10.4738   -2.3597    3.1377 H   0  0  0  0  0  0  0  0  0  0  0  0
   10.4742   -5.2145    2.5672 H   0  0  0  0  0  0  0  0  0  0  0  0
    9.3672   -5.9697    4.6541 H   0  0  0  0  0  0  0  0  0  0  0  0
    9.0479   -4.2549    5.1595 H   0  0  0  0  0  0  0  0  0  0  0  0
   11.8510   -5.4786    4.6094 H   0  0  0  0  0  0  0  0  0  0  0  0
   11.5195   -3.7591    5.1069 H   0  0  0  0  0  0  0  0  0  0  0  0
  1  2  1  0  0  0  0
  2  3  1  0  0  0  0
  2  7  2  0  0  0  0
  3  4  2  0  0  0  0
  3 33  1  0  0  0  0
  4  5  1  0  0  0  0
  4 34  1  0  0  0  0
  5  6  2  0  0  0  0
  5 31  1  0  0  0  0
  6  7  1  0  0  0  0
  6  8  1  0  0  0  0
  7 35  1  0  0  0  0
  8  9  1  0  0  0  0
  8 22  1  0  0  0  0
  8 36  1  0  0  0  0
  9 10  2  0  0  0  0
  9 11  1  0  0  0  0
 11 12  1  0  0  0  0
 11 37  1  0  0  0  0
 12 13  1  0  0  0  0
 12 21  2  0  0  0  0
 13 14  2  0  0  0  0
 13 38  1  0  0  0  0
 14 15  1  0  0  0  0
 15 16  2  0  0  0  0
 15 39  1  0  0  0  0
 16 17  1  0  0  0  0
 16 21  1  0  0  0  0
 17 18  2  0  0  0  0
 17 40  1  0  0  0  0
 18 19  1  0  0  0  0
 18 41  1  0  0  0  0
 19 20  2  0  0  0  0
 19 42  1  0  0  0  0
 20 21  1  0  0  0  0
 20 43  1  0  0  0  0
 22 23  1  0  0  0  0
 22 44  1  0  0  0  0
 22 45  1  0  0  0  0
 23 24  1  0  0  0  0
 23 31  1  0  0  0  0
 24 25  1  0  0  0  0
 24 46  1  0  0  0  0
 24 47  1  0  0  0  0
 25 26  2  0  0  0  0
 25 27  1  0  0  0  0
 27 28  1  0  0  0  0
 27 48  1  0  0  0  0
 28 29  1  0  0  0  0
 28 30  1  0  0  0  0
 28 49  1  0  0  0  0
 29 30  1  0  0  0  0
 29 50  1  0  0  0  0
 29 51  1  0  0  0  0
 30 52  1  0  0  0  0
 30 53  1  0  0  0  0
 31 32  2  0  0  0  0
M  END
$$$$
