
 OpenBabel07202414183D

 40 43  0  0  1  0  0  0  0  0999 V2000
    2.1566   -0.8217   -2.7049 C   0  0  0  0  0  0  0  0  0  0  0  0
    3.3245   -0.8660   -1.8834 N   0  0  0  0  0  0  0  0  0  0  0  0
    3.6423   -1.6909   -0.7766 C   0  0  0  0  0  0  0  0  0  0  0  0
    3.0386   -2.7780   -0.1598 C   0  0  0  0  0  0  0  0  0  0  0  0
    1.8204   -3.3607   -0.5890 N   0  0  0  0  0  0  0  0  0  0  0  0
    1.6392   -4.7351   -0.6361 C   0  0  0  0  0  0  0  0  0  0  0  0
    2.4882   -5.5560   -0.2836 O   0  0  0  0  0  0  0  0  0  0  0  0
    0.2776   -5.2218   -1.1498 C   0  0  3  0  0  0  0  0  0  0  0  0
   -0.7730   -5.0679   -0.0432 C   0  0  0  0  0  0  0  0  0  0  0  0
   -1.7715   -3.9563   -0.3118 C   0  0  0  0  0  0  0  0  0  0  0  0
   -2.3203   -3.9980   -1.6239 O   0  0  0  0  0  0  0  0  0  0  0  0
   -1.3686   -3.9672   -2.6013 C   0  0  0  0  0  0  0  0  0  0  0  0
   -1.7173   -3.3134   -3.7827 C   0  0  0  0  0  0  0  0  0  0  0  0
   -0.8321   -3.2984   -4.8586 C   0  0  0  0  0  0  0  0  0  0  0  0
    0.3692   -3.9956   -4.7667 C   0  0  0  0  0  0  0  0  0  0  0  0
    1.4292   -4.0457   -6.1194 Cl  0  0  0  0  0  0  0  0  0  0  0  0
    0.7218   -4.6474   -3.5827 C   0  0  0  0  0  0  0  0  0  0  0  0
   -0.1299   -4.5972   -2.4655 C   0  0  0  0  0  0  0  0  0  0  0  0
    3.7402   -3.3026    0.9381 C   0  0  0  0  0  0  0  0  0  0  0  0
    4.9417   -2.8529    1.4154 N   0  0  0  0  0  0  0  0  0  0  0  0
    5.5240   -1.8413    0.7464 C   0  0  0  0  0  0  0  0  0  0  0  0
    4.9017   -1.2641   -0.3307 C   0  0  0  0  0  0  0  0  0  0  0  0
    5.3667   -0.2473   -1.1552 N   0  0  0  0  0  0  0  0  0  0  0  0
    4.4091    0.0106   -2.1339 C   0  0  0  0  0  0  0  0  0  0  0  0
    4.5069    0.8373   -3.0220 O   0  0  0  0  0  0  0  0  0  0  0  0
    1.3322   -1.4133   -2.3251 H   0  0  0  0  0  0  0  0  0  0  0  0
    2.4169   -1.1461   -3.7159 H   0  0  0  0  0  0  0  0  0  0  0  0
    1.8200    0.2189   -2.7623 H   0  0  0  0  0  0  0  0  0  0  0  0
    1.2158   -2.8133   -1.1788 H   0  0  0  0  0  0  0  0  0  0  0  0
    0.3992   -6.2996   -1.3386 H   0  0  0  0  0  0  0  0  0  0  0  0
   -0.3082   -4.9072    0.9367 H   0  0  0  0  0  0  0  0  0  0  0  0
   -1.3232   -6.0142    0.0297 H   0  0  0  0  0  0  0  0  0  0  0  0
   -1.3342   -2.9658   -0.1441 H   0  0  0  0  0  0  0  0  0  0  0  0
   -2.6108   -4.0575    0.3861 H   0  0  0  0  0  0  0  0  0  0  0  0
   -2.6768   -2.8080   -3.8587 H   0  0  0  0  0  0  0  0  0  0  0  0
   -1.0955   -2.7627   -5.7669 H   0  0  0  0  0  0  0  0  0  0  0  0
    1.6616   -5.1961   -3.5347 H   0  0  0  0  0  0  0  0  0  0  0  0
    3.3348   -4.1282    1.5197 H   0  0  0  0  0  0  0  0  0  0  0  0
    6.4950   -1.5241    1.1092 H   0  0  0  0  0  0  0  0  0  0  0  0
    6.2564    0.2258   -1.1096 H   0  0  0  0  0  0  0  0  0  0  0  0
  1  2  1  0  0  0  0
  1 26  1  0  0  0  0
  1 27  1  0  0  0  0
  1 28  1  0  0  0  0
  2  3  1  0  0  0  0
  2 24  1  0  0  0  0
  3  4  1  0  0  0  0
  3 22  2  0  0  0  0
  4  5  1  0  0  0  0
  4 19  2  0  0  0  0
  5  6  1  0  0  0  0
  5 29  1  0  0  0  0
  6  7  2  0  0  0  0
  6  8  1  0  0  0  0
  8  9  1  0  0  0  0
  8 18  1  0  0  0  0
  8 30  1  0  0  0  0
  9 10  1  0  0  0  0
  9 31  1  0  0  0  0
  9 32  1  0  0  0  0
 10 11  1  0  0  0  0
 10 33  1  0  0  0  0
 10 34  1  0  0  0  0
 11 12  1  0  0  0  0
 12 13  1  0  0  0  0
 12 18  2  0  0  0  0
 13 14  2  0  0  0  0
 13 35  1  0  0  0  0
 14 15  1  0  0  0  0
 14 36  1  0  0  0  0
 15 16  1  0  0  0  0
 15 17  2  0  0  0  0
 17 18  1  0  0  0  0
 17 37  1  0  0  0  0
 19 20  1  0  0  0  0
 19 38  1  0  0  0  0
 20 21  2  0  0  0  0
 21 22  1  0  0  0  0
 21 39  1  0  0  0  0
 22 23  1  0  0  0  0
 23 24  1  0  0  0  0
 23 40  1  0  0  0  0
 24 25  2  0  0  0  0
M  END
$$$$
