
 OpenBabel07202414143D

 49 52  0  0  1  0  0  0  0  0999 V2000
    8.2771    0.7337    0.2041 C   0  0  0  0  0  0  0  0  0  0  0  0
    7.1464    0.5977   -0.6745 N   0  0  0  0  0  0  0  0  0  0  0  0
    5.9776    0.0278   -0.2204 C   0  0  0  0  0  0  0  0  0  0  0  0
    5.8436   -0.3978    0.9253 O   0  0  0  0  0  0  0  0  0  0  0  0
    4.8080    0.0867   -1.1985 C   0  0  0  0  0  0  0  0  0  0  0  0
    5.1750   -0.0072   -2.6134 N   0  0  0  0  0  0  0  0  0  0  0  0
    5.4357   -1.3146   -3.1907 C   0  0  0  0  0  0  0  0  0  0  0  0
    4.5004   -1.6421   -4.3538 C   0  0  1  0  0  0  0  0  0  0  0  0
    3.1376   -2.1191   -3.8294 C   0  0  0  0  0  0  0  0  0  0  0  0
    2.5237   -1.5171   -2.9584 O   0  0  0  0  0  0  0  0  0  0  0  0
    2.6789   -3.2365   -4.5059 N   0  0  0  0  0  0  0  0  0  0  0  0
    1.4149   -3.8697   -4.3957 C   0  0  0  0  0  0  0  0  0  0  0  0
    0.5259   -3.5739   -3.3602 C   0  0  0  0  0  0  0  0  0  0  0  0
   -0.7017   -4.1301   -3.2272 N   0  0  0  0  0  0  0  0  0  0  0  0
   -1.0734   -4.9977   -4.1829 C   0  0  0  0  0  0  0  0  0  0  0  0
   -0.2870   -5.3696   -5.2719 C   0  0  0  0  0  0  0  0  0  0  0  0
   -0.8048   -6.2591   -6.2267 C   0  0  0  0  0  0  0  0  0  0  0  0
   -0.0585   -6.6466   -7.3330 C   0  0  0  0  0  0  0  0  0  0  0  0
    1.2337   -6.1609   -7.4804 C   0  0  0  0  0  0  0  0  0  0  0  0
    1.7675   -5.2809   -6.5355 C   0  0  0  0  0  0  0  0  0  0  0  0
    3.4094   -4.8014   -6.8437 Cl  0  0  0  0  0  0  0  0  0  0  0  0
    1.0176   -4.8261   -5.3958 C   0  0  0  0  0  0  0  0  0  0  0  0
    4.3453   -0.4476   -5.2774 C   0  0  0  0  0  0  0  0  0  0  0  0
    3.8277   -0.6223   -6.5731 C   0  0  0  0  0  0  0  0  0  0  0  0
    3.5908    0.4825   -7.3920 C   0  0  0  0  0  0  0  0  0  0  0  0
    2.8943    0.2508   -8.9479 Cl  0  0  0  0  0  0  0  0  0  0  0  0
    3.8875    1.7683   -6.9487 C   0  0  0  0  0  0  0  0  0  0  0  0
    4.4231    1.9548   -5.6721 C   0  0  0  0  0  0  0  0  0  0  0  0
    4.6461    0.8554   -4.8311 C   0  0  0  0  0  0  0  0  0  0  0  0
    5.0654    1.1098   -3.4190 C   0  0  0  0  0  0  0  0  0  0  0  0
    5.2254    2.2499   -2.9995 O   0  0  0  0  0  0  0  0  0  0  0  0
    9.0631    1.2893   -0.3108 H   0  0  0  0  0  0  0  0  0  0  0  0
    8.6372   -0.2636    0.4728 H   0  0  0  0  0  0  0  0  0  0  0  0
    7.9759    1.2622    1.1133 H   0  0  0  0  0  0  0  0  0  0  0  0
    7.0791    1.1733   -1.5096 H   0  0  0  0  0  0  0  0  0  0  0  0
    4.2724    1.0257   -1.0201 H   0  0  0  0  0  0  0  0  0  0  0  0
    4.1253   -0.7390   -0.9735 H   0  0  0  0  0  0  0  0  0  0  0  0
    5.4080   -2.0863   -2.4134 H   0  0  0  0  0  0  0  0  0  0  0  0
    6.4667   -1.2744   -3.5700 H   0  0  0  0  0  0  0  0  0  0  0  0
    4.9737   -2.4575   -4.9165 H   0  0  0  0  0  0  0  0  0  0  0  0
    3.2629   -3.5926   -5.2510 H   0  0  0  0  0  0  0  0  0  0  0  0
    0.7654   -2.8775   -2.5623 H   0  0  0  0  0  0  0  0  0  0  0  0
   -2.0746   -5.4019   -4.0434 H   0  0  0  0  0  0  0  0  0  0  0  0
   -1.8161   -6.6561   -6.1231 H   0  0  0  0  0  0  0  0  0  0  0  0
   -0.4803   -7.3217   -8.0763 H   0  0  0  0  0  0  0  0  0  0  0  0
    1.8215   -6.4720   -8.3417 H   0  0  0  0  0  0  0  0  0  0  0  0
    3.5742   -1.6139   -6.9394 H   0  0  0  0  0  0  0  0  0  0  0  0
    3.6812    2.6308   -7.5775 H   0  0  0  0  0  0  0  0  0  0  0  0
    4.6235    2.9648   -5.3181 H   0  0  0  0  0  0  0  0  0  0  0  0
  1  2  1  0  0  0  0
  1 32  1  0  0  0  0
  1 33  1  0  0  0  0
  1 34  1  0  0  0  0
  2  3  1  0  0  0  0
  2 35  1  0  0  0  0
  3  4  2  0  0  0  0
  3  5  1  0  0  0  0
  5  6  1  0  0  0  0
  5 36  1  0  0  0  0
  5 37  1  0  0  0  0
  6  7  1  0  0  0  0
  6 30  1  0  0  0  0
  7  8  1  0  0  0  0
  7 38  1  0  0  0  0
  7 39  1  0  0  0  0
  8  9  1  0  0  0  0
  8 23  1  0  0  0  0
  8 40  1  6  0  0  0
  9 10  2  0  0  0  0
  9 11  1  0  0  0  0
 11 12  1  0  0  0  0
 11 41  1  0  0  0  0
 12 13  1  0  0  0  0
 12 22  2  0  0  0  0
 13 14  2  0  0  0  0
 13 42  1  0  0  0  0
 14 15  1  0  0  0  0
 15 16  2  0  0  0  0
 15 43  1  0  0  0  0
 16 17  1  0  0  0  0
 16 22  1  0  0  0  0
 17 18  2  0  0  0  0
 17 44  1  0  0  0  0
 18 19  1  0  0  0  0
 18 45  1  0  0  0  0
 19 20  2  0  0  0  0
 19 46  1  0  0  0  0
 20 21  1  0  0  0  0
 20 22  1  0  0  0  0
 23 24  1  0  0  0  0
 23 29  2  0  0  0  0
 24 25  2  0  0  0  0
 24 47  1  0  0  0  0
 25 26  1  0  0  0  0
 25 27  1  0  0  0  0
 27 28  2  0  0  0  0
 27 48  1  0  0  0  0
 28 29  1  0  0  0  0
 28 49  1  0  0  0  0
 29 30  1  0  0  0  0
 30 31  2  0  0  0  0
M  END
$$$$
