
 OpenBabel07202414193D

 54 57  0  0  1  0  0  0  0  0999 V2000
    2.6428   -0.5773    1.0412 O   0  0  0  0  0  0  0  0  0  0  0  0
    2.6606   -0.1983   -0.1333 C   0  0  0  0  0  0  0  0  0  0  0  0
    3.0456    1.2619   -0.4770 C   0  0  2  0  0  0  0  0  0  0  0  0
    4.4375    1.5906    0.0785 C   0  0  0  0  0  0  0  0  0  0  0  0
    4.5506    3.0825   -0.2239 C   0  0  0  0  0  0  0  0  0  0  0  0
    3.1331    3.6029    0.0010 C   0  0  0  0  0  0  0  0  0  0  0  0
    2.2884    2.4150    0.0395 N   0  0  0  0  0  0  0  0  0  0  0  0
    1.0674    2.4760    0.6783 C   0  0  0  0  0  0  0  0  0  0  0  0
    0.7273    3.4928    1.2898 O   0  0  0  0  0  0  0  0  0  0  0  0
    0.1513    1.2741    0.6252 C   0  0  0  0  0  0  0  0  0  0  0  0
   -1.2795    1.6080    0.2843 C   0  0  0  0  0  0  0  0  0  0  0  0
   -1.6210    1.6803   -1.0652 C   0  0  0  0  0  0  0  0  0  0  0  0
   -2.8757    1.8402   -1.5270 N   0  0  0  0  0  0  0  0  0  0  0  0
   -3.8403    1.9440   -0.5896 C   0  0  0  0  0  0  0  0  0  0  0  0
   -3.6233    1.9219    0.7887 C   0  0  0  0  0  0  0  0  0  0  0  0
   -4.6797    2.0265    1.7101 C   0  0  0  0  0  0  0  0  0  0  0  0
   -4.4334    2.0292    3.0818 C   0  0  0  0  0  0  0  0  0  0  0  0
   -3.1257    1.9576    3.5474 C   0  0  0  0  0  0  0  0  0  0  0  0
   -2.0686    1.8429    2.6420 C   0  0  0  0  0  0  0  0  0  0  0  0
   -2.2931    1.7918    1.2462 C   0  0  0  0  0  0  0  0  0  0  0  0
    2.1978   -1.0145   -1.1789 N   0  0  0  0  0  0  0  0  0  0  0  0
    1.5464   -2.2796   -0.8306 C   0  0  0  0  0  0  0  0  0  0  0  0
    2.5509   -3.4230   -0.7354 C   0  0  0  0  0  0  0  0  0  0  0  0
    3.0876   -3.9096   -2.0827 C   0  0  0  0  0  0  0  0  0  0  0  0
    3.6619   -2.8204   -2.9892 C   0  0  0  0  0  0  0  0  0  0  0  0
    2.5834   -1.8804   -3.5276 C   0  0  0  0  0  0  0  0  0  0  0  0
    2.3158   -0.6940   -2.6029 C   0  0  0  0  0  0  0  0  0  0  0  0
    3.0686    1.4247   -1.5525 H   0  0  0  0  0  0  0  0  0  0  0  0
    5.2385    1.0002   -0.3721 H   0  0  0  0  0  0  0  0  0  0  0  0
    4.4694    1.4364    1.1667 H   0  0  0  0  0  0  0  0  0  0  0  0
    4.8460    3.2256   -1.2701 H   0  0  0  0  0  0  0  0  0  0  0  0
    5.2825    3.5952    0.4057 H   0  0  0  0  0  0  0  0  0  0  0  0
    2.8109    4.2303   -0.8389 H   0  0  0  0  0  0  0  0  0  0  0  0
    3.0436    4.1806    0.9241 H   0  0  0  0  0  0  0  0  0  0  0  0
    0.2278    0.7254    1.5689 H   0  0  0  0  0  0  0  0  0  0  0  0
    0.4608    0.5843   -0.1544 H   0  0  0  0  0  0  0  0  0  0  0  0
   -0.8712    1.5711   -1.8450 H   0  0  0  0  0  0  0  0  0  0  0  0
   -4.8444    2.0505   -0.9935 H   0  0  0  0  0  0  0  0  0  0  0  0
   -5.7080    2.1005    1.3606 H   0  0  0  0  0  0  0  0  0  0  0  0
   -5.2589    2.0992    3.7848 H   0  0  0  0  0  0  0  0  0  0  0  0
   -2.9227    1.9956    4.6148 H   0  0  0  0  0  0  0  0  0  0  0  0
   -1.0561    1.8223    3.0431 H   0  0  0  0  0  0  0  0  0  0  0  0
    0.7511   -2.4915   -1.5558 H   0  0  0  0  0  0  0  0  0  0  0  0
    1.0466   -2.1662    0.1387 H   0  0  0  0  0  0  0  0  0  0  0  0
    2.0684   -4.2741   -0.2396 H   0  0  0  0  0  0  0  0  0  0  0  0
    3.3928   -3.1252   -0.0992 H   0  0  0  0  0  0  0  0  0  0  0  0
    2.2913   -4.4411   -2.6186 H   0  0  0  0  0  0  0  0  0  0  0  0
    3.8729   -4.6505   -1.8891 H   0  0  0  0  0  0  0  0  0  0  0  0
    4.1434   -3.3127   -3.8422 H   0  0  0  0  0  0  0  0  0  0  0  0
    4.4473   -2.2594   -2.4675 H   0  0  0  0  0  0  0  0  0  0  0  0
    1.6577   -2.4307   -3.7325 H   0  0  0  0  0  0  0  0  0  0  0  0
    2.9123   -1.4760   -4.4935 H   0  0  0  0  0  0  0  0  0  0  0  0
    1.3893   -0.1886   -2.9014 H   0  0  0  0  0  0  0  0  0  0  0  0
    3.1407    0.0007   -2.7610 H   0  0  0  0  0  0  0  0  0  0  0  0
  1  2  2  0  0  0  0
  2  3  1  0  0  0  0
  2 21  1  0  0  0  0
  3  4  1  0  0  0  0
  3  7  1  0  0  0  0
  3 28  1  6  0  0  0
  4  5  1  0  0  0  0
  4 29  1  0  0  0  0
  4 30  1  0  0  0  0
  5  6  1  0  0  0  0
  5 31  1  0  0  0  0
  5 32  1  0  0  0  0
  6  7  1  0  0  0  0
  6 33  1  0  0  0  0
  6 34  1  0  0  0  0
  7  8  1  0  0  0  0
  8  9  2  0  0  0  0
  8 10  1  0  0  0  0
 10 11  1  0  0  0  0
 10 35  1  0  0  0  0
 10 36  1  0  0  0  0
 11 12  1  0  0  0  0
 11 20  2  0  0  0  0
 12 13  2  0  0  0  0
 12 37  1  0  0  0  0
 13 14  1  0  0  0  0
 14 15  2  0  0  0  0
 14 38  1  0  0  0  0
 15 16  1  0  0  0  0
 15 20  1  0  0  0  0
 16 17  2  0  0  0  0
 16 39  1  0  0  0  0
 17 18  1  0  0  0  0
 17 40  1  0  0  0  0
 18 19  2  0  0  0  0
 18 41  1  0  0  0  0
 19 20  1  0  0  0  0
 19 42  1  0  0  0  0
 21 22  1  0  0  0  0
 21 27  1  0  0  0  0
 22 23  1  0  0  0  0
 22 43  1  0  0  0  0
 22 44  1  0  0  0  0
 23 24  1  0  0  0  0
 23 45  1  0  0  0  0
 23 46  1  0  0  0  0
 24 25  1  0  0  0  0
 24 47  1  0  0  0  0
 24 48  1  0  0  0  0
 25 26  1  0  0  0  0
 25 49  1  0  0  0  0
 25 50  1  0  0  0  0
 26 27  1  0  0  0  0
 26 51  1  0  0  0  0
 26 52  1  0  0  0  0
 27 53  1  0  0  0  0
 27 54  1  0  0  0  0
M  END
$$$$
