
 OpenBabel07202414133D

 57 60  0  0  1  0  0  0  0  0999 V2000
    0.9401    0.2467    1.2075 C   0  0  0  0  0  0  0  0  0  0  0  0
    2.3440    0.5831    1.0554 N   0  0  0  0  0  0  0  0  0  0  0  0
    2.7254    1.9858    1.0626 C   0  0  0  0  0  0  0  0  0  0  0  0
    3.2673   -0.4544    1.0949 C   0  0  0  0  0  0  0  0  0  0  0  0
    2.9298   -1.6373    1.2031 O   0  0  0  0  0  0  0  0  0  0  0  0
    4.7609   -0.0905    1.0638 C   0  0  0  0  0  0  0  0  0  0  0  0
    5.2257    0.0929    2.4506 N   0  0  0  0  0  0  0  0  0  0  0  0
    6.6724    0.3223    2.5163 C   0  0  0  0  0  0  0  0  0  0  0  0
    7.3390    0.5099    3.9329 C   0  0  3  0  0  0  0  0  0  0  0  0
    8.8791    0.8595    3.7751 C   0  0  0  0  0  0  0  0  0  0  0  0
    9.4784    1.5050    4.6337 O   0  0  0  0  0  0  0  0  0  0  0  0
    9.5023    0.3284    2.6546 N   0  0  0  0  0  0  0  0  0  0  0  0
   10.7800    0.6547    2.1096 C   0  0  0  0  0  0  0  0  0  0  0  0
   11.6433    1.5804    2.6983 C   0  0  0  0  0  0  0  0  0  0  0  0
   12.7906    2.0250    2.1291 N   0  0  0  0  0  0  0  0  0  0  0  0
   13.1208    1.4976    0.9323 C   0  0  0  0  0  0  0  0  0  0  0  0
   12.3984    0.4967    0.2832 C   0  0  0  0  0  0  0  0  0  0  0  0
   12.8659   -0.0687   -0.9186 C   0  0  0  0  0  0  0  0  0  0  0  0
   12.1546   -1.0819   -1.5545 C   0  0  0  0  0  0  0  0  0  0  0  0
   10.9550   -1.5186   -1.0126 C   0  0  0  0  0  0  0  0  0  0  0  0
   10.4771   -0.9558    0.1760 C   0  0  0  0  0  0  0  0  0  0  0  0
   11.1877    0.0597    0.8730 C   0  0  0  0  0  0  0  0  0  0  0  0
    7.2783   -0.7664    4.7958 C   0  0  0  0  0  0  0  0  0  0  0  0
    5.9117   -1.0253    5.4121 C   0  0  0  0  0  0  0  0  0  0  0  0
    5.3561    0.0772    6.1151 O   0  0  0  0  0  0  0  0  0  0  0  0
    5.6259    1.3271    5.6404 C   0  0  0  0  0  0  0  0  0  0  0  0
    4.8729    2.3457    6.2371 C   0  0  0  0  0  0  0  0  0  0  0  0
    5.0876    3.6799    5.8983 C   0  0  0  0  0  0  0  0  0  0  0  0
    6.0695    3.9946    4.9674 C   0  0  0  0  0  0  0  0  0  0  0  0
    6.3679    5.6413    4.5659 Cl  0  0  0  0  0  0  0  0  0  0  0  0
    6.8087    2.9838    4.3488 C   0  0  0  0  0  0  0  0  0  0  0  0
    6.5907    1.6274    4.6695 C   0  0  0  0  0  0  0  0  0  0  0  0
    0.3107    1.1397    1.1753 H   0  0  0  0  0  0  0  0  0  0  0  0
    0.7918   -0.2690    2.1616 H   0  0  0  0  0  0  0  0  0  0  0  0
    0.6492   -0.4255    0.3943 H   0  0  0  0  0  0  0  0  0  0  0  0
    1.8468    2.6349    1.0867 H   0  0  0  0  0  0  0  0  0  0  0  0
    3.2873    2.1995    0.1487 H   0  0  0  0  0  0  0  0  0  0  0  0
    3.3533    2.1946    1.9326 H   0  0  0  0  0  0  0  0  0  0  0  0
    4.9433    0.7991    0.4566 H   0  0  0  0  0  0  0  0  0  0  0  0
    5.2854   -0.9264    0.5843 H   0  0  0  0  0  0  0  0  0  0  0  0
    4.9685   -0.7607    2.9427 H   0  0  0  0  0  0  0  0  0  0  0  0
    6.9031    1.2105    1.9121 H   0  0  0  0  0  0  0  0  0  0  0  0
    7.1333   -0.5364    2.0179 H   0  0  0  0  0  0  0  0  0  0  0  0
    8.9740   -0.2997    2.0818 H   0  0  0  0  0  0  0  0  0  0  0  0
   11.4618    2.0148    3.6716 H   0  0  0  0  0  0  0  0  0  0  0  0
   14.0219    1.9168    0.4892 H   0  0  0  0  0  0  0  0  0  0  0  0
   13.8058    0.2627   -1.3570 H   0  0  0  0  0  0  0  0  0  0  0  0
   12.5397   -1.5361   -2.4636 H   0  0  0  0  0  0  0  0  0  0  0  0
   10.3915   -2.3071   -1.5036 H   0  0  0  0  0  0  0  0  0  0  0  0
    9.5428   -1.3583    0.5535 H   0  0  0  0  0  0  0  0  0  0  0  0
    7.9877   -0.6641    5.6298 H   0  0  0  0  0  0  0  0  0  0  0  0
    7.6053   -1.6425    4.2236 H   0  0  0  0  0  0  0  0  0  0  0  0
    6.0034   -1.8432    6.1353 H   0  0  0  0  0  0  0  0  0  0  0  0
    5.1773   -1.3811    4.6890 H   0  0  0  0  0  0  0  0  0  0  0  0
    4.1117    2.0923    6.9715 H   0  0  0  0  0  0  0  0  0  0  0  0
    4.4966    4.4601    6.3690 H   0  0  0  0  0  0  0  0  0  0  0  0
    7.5706    3.2643    3.6252 H   0  0  0  0  0  0  0  0  0  0  0  0
  1  2  1  0  0  0  0
  1 33  1  0  0  0  0
  1 34  1  0  0  0  0
  1 35  1  0  0  0  0
  2  3  1  0  0  0  0
  2  4  1  0  0  0  0
  3 36  1  0  0  0  0
  3 37  1  0  0  0  0
  3 38  1  0  0  0  0
  4  5  2  0  0  0  0
  4  6  1  0  0  0  0
  6  7  1  0  0  0  0
  6 39  1  0  0  0  0
  6 40  1  0  0  0  0
  7  8  1  0  0  0  0
  7 41  1  0  0  0  0
  8  9  1  0  0  0  0
  8 42  1  0  0  0  0
  8 43  1  0  0  0  0
  9 10  1  0  0  0  0
  9 23  1  0  0  0  0
  9 32  1  0  0  0  0
 10 11  2  0  0  0  0
 10 12  1  0  0  0  0
 12 13  1  0  0  0  0
 12 44  1  0  0  0  0
 13 14  1  0  0  0  0
 13 22  2  0  0  0  0
 14 15  2  0  0  0  0
 14 45  1  0  0  0  0
 15 16  1  0  0  0  0
 16 17  2  0  0  0  0
 16 46  1  0  0  0  0
 17 18  1  0  0  0  0
 17 22  1  0  0  0  0
 18 19  2  0  0  0  0
 18 47  1  0  0  0  0
 19 20  1  0  0  0  0
 19 48  1  0  0  0  0
 20 21  2  0  0  0  0
 20 49  1  0  0  0  0
 21 22  1  0  0  0  0
 21 50  1  0  0  0  0
 23 24  1  0  0  0  0
 23 51  1  0  0  0  0
 23 52  1  0  0  0  0
 24 25  1  0  0  0  0
 24 53  1  0  0  0  0
 24 54  1  0  0  0  0
 25 26  1  0  0  0  0
 26 27  1  0  0  0  0
 26 32  2  0  0  0  0
 27 28  2  0  0  0  0
 27 55  1  0  0  0  0
 28 29  1  0  0  0  0
 28 56  1  0  0  0  0
 29 30  1  0  0  0  0
 29 31  2  0  0  0  0
 31 32  1  0  0  0  0
 31 57  1  0  0  0  0
M  END
$$$$
