
 OpenBabel07202414193D

 41 44  0  0  1  0  0  0  0  0999 V2000
    1.1365    0.2173   -0.2511 N   0  0  0  0  0  0  0  0  0  0  0  0
    2.6236    0.2654   -0.2833 C   0  0  2  0  0  0  0  0  0  0  0  0
    3.0547    1.0047   -1.6099 C   0  0  0  0  0  0  0  0  0  0  0  0
    2.2050    1.3872   -2.4174 O   0  0  0  0  0  0  0  0  0  0  0  0
    4.4200    1.1694   -1.7672 N   0  0  0  0  0  0  0  0  0  0  0  0
    5.1098    1.7166   -2.8927 C   0  0  0  0  0  0  0  0  0  0  0  0
    4.4581    2.1842   -4.0330 C   0  0  0  0  0  0  0  0  0  0  0  0
    5.0808    2.5685   -5.1737 N   0  0  0  0  0  0  0  0  0  0  0  0
    6.4274    2.5261   -5.1698 C   0  0  0  0  0  0  0  0  0  0  0  0
    7.2004    2.1812   -4.0631 C   0  0  0  0  0  0  0  0  0  0  0  0
    8.6058    2.2632   -4.1086 C   0  0  0  0  0  0  0  0  0  0  0  0
    9.3723    1.9489   -2.9898 C   0  0  0  0  0  0  0  0  0  0  0  0
    8.7454    1.5297   -1.8252 C   0  0  0  0  0  0  0  0  0  0  0  0
    7.3520    1.4335   -1.7751 C   0  0  0  0  0  0  0  0  0  0  0  0
    6.5356    1.7613   -2.8850 C   0  0  0  0  0  0  0  0  0  0  0  0
    3.1376   -1.1826   -0.3005 C   0  0  0  0  0  0  0  0  0  0  0  0
    2.9116   -1.8065    1.0672 C   0  0  0  0  0  0  0  0  0  0  0  0
    3.7056   -1.1529    2.0599 O   0  0  0  0  0  0  0  0  0  0  0  0
    3.5866    0.2114    2.0679 C   0  0  0  0  0  0  0  0  0  0  0  0
    4.0074    0.8372    3.2449 C   0  0  0  0  0  0  0  0  0  0  0  0
    3.9479    2.2244    3.3612 C   0  0  0  0  0  0  0  0  0  0  0  0
    3.4781    2.9815    2.2926 C   0  0  0  0  0  0  0  0  0  0  0  0
    3.4098    4.6952    2.4267 Cl  0  0  0  0  0  0  0  0  0  0  0  0
    3.0610    2.3632    1.1107 C   0  0  0  0  0  0  0  0  0  0  0  0
    3.1152    0.9629    0.9781 C   0  0  0  0  0  0  0  0  0  0  0  0
    0.8200   -0.1656   -1.1465 H   0  0  0  0  0  0  0  0  0  0  0  0
    0.7932    1.1789   -0.2799 H   0  0  0  0  0  0  0  0  0  0  0  0
    4.9975    0.8077   -1.0212 H   0  0  0  0  0  0  0  0  0  0  0  0
    3.3790    2.2780   -4.0978 H   0  0  0  0  0  0  0  0  0  0  0  0
    6.8875    2.7997   -6.1169 H   0  0  0  0  0  0  0  0  0  0  0  0
    9.1104    2.5989   -5.0124 H   0  0  0  0  0  0  0  0  0  0  0  0
   10.4546    2.0422   -3.0240 H   0  0  0  0  0  0  0  0  0  0  0  0
    9.3360    1.2885   -0.9445 H   0  0  0  0  0  0  0  0  0  0  0  0
    6.9236    1.1264   -0.8252 H   0  0  0  0  0  0  0  0  0  0  0  0
    4.2132   -1.2080   -0.5188 H   0  0  0  0  0  0  0  0  0  0  0  0
    2.6441   -1.7720   -1.0827 H   0  0  0  0  0  0  0  0  0  0  0  0
    3.2226   -2.8563    1.0497 H   0  0  0  0  0  0  0  0  0  0  0  0
    1.8593   -1.7939    1.3767 H   0  0  0  0  0  0  0  0  0  0  0  0
    4.3631    0.2380    4.0798 H   0  0  0  0  0  0  0  0  0  0  0  0
    4.2582    2.7032    4.2862 H   0  0  0  0  0  0  0  0  0  0  0  0
    2.6869    2.9805    0.2963 H   0  0  0  0  0  0  0  0  0  0  0  0
  1  2  1  0  0  0  0
  1 26  1  0  0  0  0
  1 27  1  0  0  0  0
  2  3  1  6  0  0  0
  2 16  1  0  0  0  0
  2 25  1  0  0  0  0
  3  4  2  0  0  0  0
  3  5  1  0  0  0  0
  5  6  1  0  0  0  0
  5 28  1  0  0  0  0
  6  7  1  0  0  0  0
  6 15  2  0  0  0  0
  7  8  2  0  0  0  0
  7 29  1  0  0  0  0
  8  9  1  0  0  0  0
  9 10  2  0  0  0  0
  9 30  1  0  0  0  0
 10 11  1  0  0  0  0
 10 15  1  0  0  0  0
 11 12  2  0  0  0  0
 11 31  1  0  0  0  0
 12 13  1  0  0  0  0
 12 32  1  0  0  0  0
 13 14  2  0  0  0  0
 13 33  1  0  0  0  0
 14 15  1  0  0  0  0
 14 34  1  0  0  0  0
 16 17  1  0  0  0  0
 16 35  1  0  0  0  0
 16 36  1  0  0  0  0
 17 18  1  0  0  0  0
 17 37  1  0  0  0  0
 17 38  1  0  0  0  0
 18 19  1  0  0  0  0
 19 20  1  0  0  0  0
 19 25  2  0  0  0  0
 20 21  2  0  0  0  0
 20 39  1  0  0  0  0
 21 22  1  0  0  0  0
 21 40  1  0  0  0  0
 22 23  1  0  0  0  0
 22 24  2  0  0  0  0
 24 25  1  0  0  0  0
 24 41  1  0  0  0  0
M  END
$$$$
