
 OpenBabel07202414193D

 32 34  0  0  0  0  0  0  0  0999 V2000
    1.0742    0.0741    0.4711 O   0  0  0  0  0  0  0  0  0  0  0  0
    2.2513    0.0138    0.1351 C   0  0  0  0  0  0  0  0  0  0  0  0
    2.8468    0.8413   -0.8069 N   0  0  0  0  0  0  0  0  0  0  0  0
    2.1744    1.8670   -1.4648 C   0  0  0  0  0  0  0  0  0  0  0  0
    0.9528    2.4025   -1.1098 C   0  0  0  0  0  0  0  0  0  0  0  0
    0.6152    3.3648   -2.0212 N   0  0  0  0  0  0  0  0  0  0  0  0
    1.6010    3.4746   -2.9569 C   0  0  0  0  0  0  0  0  0  0  0  0
    1.5551    4.3282   -3.9954 N   0  0  0  0  0  0  0  0  0  0  0  0
    2.6359    4.2379   -4.7982 C   0  0  0  0  0  0  0  0  0  0  0  0
    3.7108    3.3786   -4.6103 C   0  0  0  0  0  0  0  0  0  0  0  0
    3.7121    2.5172   -3.5083 C   0  0  0  0  0  0  0  0  0  0  0  0
    2.6054    2.5616   -2.6404 C   0  0  0  0  0  0  0  0  0  0  0  0
    3.1522   -0.9054    0.6552 N   0  0  0  0  0  0  0  0  0  0  0  0
    2.7992   -1.9919    1.4916 C   0  0  0  0  0  0  0  0  0  0  0  0
    1.5002   -2.5121    1.5535 C   0  0  0  0  0  0  0  0  0  0  0  0
    1.1902   -3.5733    2.4075 C   0  0  0  0  0  0  0  0  0  0  0  0
    2.1808   -4.1376    3.2057 C   0  0  0  0  0  0  0  0  0  0  0  0
    3.4870   -3.6451    3.1358 C   0  0  0  0  0  0  0  0  0  0  0  0
    4.5097   -4.2228    3.9567 C   0  0  0  0  0  0  0  0  0  0  0  0
    5.3429   -4.6859    4.6191 N   0  0  0  0  0  0  0  0  0  0  0  0
    3.7958   -2.5835    2.2720 C   0  0  0  0  0  0  0  0  0  0  0  0
    3.7338    0.5611   -1.1973 H   0  0  0  0  0  0  0  0  0  0  0  0
    0.2792    2.1767   -0.2940 H   0  0  0  0  0  0  0  0  0  0  0  0
   -0.2335    3.9100   -2.0292 H   0  0  0  0  0  0  0  0  0  0  0  0
    2.6156    4.9116   -5.6519 H   0  0  0  0  0  0  0  0  0  0  0  0
    4.5328    3.3761   -5.3181 H   0  0  0  0  0  0  0  0  0  0  0  0
    4.5358    1.8315   -3.3468 H   0  0  0  0  0  0  0  0  0  0  0  0
    4.1214   -0.6268    0.6464 H   0  0  0  0  0  0  0  0  0  0  0  0
    0.6992   -2.1131    0.9372 H   0  0  0  0  0  0  0  0  0  0  0  0
    0.1699   -3.9503    2.4462 H   0  0  0  0  0  0  0  0  0  0  0  0
    1.9257   -4.9553    3.8744 H   0  0  0  0  0  0  0  0  0  0  0  0
    4.8172   -2.2063    2.2384 H   0  0  0  0  0  0  0  0  0  0  0  0
  1  2  2  0  0  0  0
  2  3  1  0  0  0  0
  2 13  1  0  0  0  0
  3  4  1  0  0  0  0
  3 22  1  0  0  0  0
  4  5  2  0  0  0  0
  4 12  1  0  0  0  0
  5  6  1  0  0  0  0
  5 23  1  0  0  0  0
  6  7  1  0  0  0  0
  6 24  1  0  0  0  0
  7  8  1  0  0  0  0
  7 12  2  0  0  0  0
  8  9  2  0  0  0  0
  9 10  1  0  0  0  0
  9 25  1  0  0  0  0
 10 11  2  0  0  0  0
 10 26  1  0  0  0  0
 11 12  1  0  0  0  0
 11 27  1  0  0  0  0
 13 14  1  0  0  0  0
 13 28  1  0  0  0  0
 14 15  1  0  0  0  0
 14 21  2  0  0  0  0
 15 16  2  0  0  0  0
 15 29  1  0  0  0  0
 16 17  1  0  0  0  0
 16 30  1  0  0  0  0
 17 18  2  0  0  0  0
 17 31  1  0  0  0  0
 18 19  1  0  0  0  0
 18 21  1  0  0  0  0
 19 20  3  0  0  0  0
 21 32  1  0  0  0  0
M  END
$$$$
