
 OpenBabel07202414193D

 44 47  0  0  0  0  0  0  0  0999 V2000
    3.4449   -0.3869    0.3820 O   0  0  0  0  0  0  0  0  0  0  0  0
    2.9593    0.5501   -0.2574 C   0  0  0  0  0  0  0  0  0  0  0  0
    3.0445    0.6256   -1.6652 N   0  0  0  0  0  0  0  0  0  0  0  0
    2.5240    1.7935   -2.3901 C   0  0  0  0  0  0  0  0  0  0  0  0
    2.4053    1.7510   -3.8878 C   0  0  0  0  0  0  0  0  0  0  0  0
    3.5883    1.1457   -4.4652 N   0  0  0  0  0  0  0  0  0  0  0  0
    4.5235    1.9193   -5.1239 C   0  0  0  0  0  0  0  0  0  0  0  0
    4.8261    3.2479   -4.7810 C   0  0  0  0  0  0  0  0  0  0  0  0
    5.7201    4.0151   -5.5416 C   0  0  0  0  0  0  0  0  0  0  0  0
    6.3155    3.4674   -6.6731 C   0  0  0  0  0  0  0  0  0  0  0  0
    6.0282    2.1560   -7.0334 C   0  0  0  0  0  0  0  0  0  0  0  0
    5.1513    1.3942   -6.2580 C   0  0  0  0  0  0  0  0  0  0  0  0
    3.9333   -0.1675   -3.8940 C   0  0  0  0  0  0  0  0  0  0  0  0
    4.1161   -0.1011   -2.3551 C   0  0  0  0  0  0  0  0  0  0  0  0
    2.2605    1.7036    0.4265 C   0  0  0  0  0  0  0  0  0  0  0  0
    2.6282    2.9626    0.0577 C   0  0  0  0  0  0  0  0  0  0  0  0
    1.3161    3.6680   -0.2918 C   0  0  0  0  0  0  0  0  0  0  0  0
    1.1711    4.2300   -1.3818 O   0  0  0  0  0  0  0  0  0  0  0  0
    0.3138    3.4965    0.6333 N   0  0  0  0  0  0  0  0  0  0  0  0
    0.7255    2.8825    1.8344 C   0  0  0  0  0  0  0  0  0  0  0  0
    0.8715    3.7390    2.9198 C   0  0  0  0  0  0  0  0  0  0  0  0
    1.6683    3.3478    3.9874 C   0  0  0  0  0  0  0  0  0  0  0  0
    2.2098    2.0582    4.0232 C   0  0  0  0  0  0  0  0  0  0  0  0
    2.1447    1.2284    2.9010 C   0  0  0  0  0  0  0  0  0  0  0  0
    1.5676    1.7469    1.7478 C   0  0  0  0  0  0  0  0  0  0  0  0
    3.2048    2.6128   -2.1550 H   0  0  0  0  0  0  0  0  0  0  0  0
    1.5093    1.9549   -2.0173 H   0  0  0  0  0  0  0  0  0  0  0  0
    2.2155    2.7686   -4.2540 H   0  0  0  0  0  0  0  0  0  0  0  0
    1.5262    1.1605   -4.1689 H   0  0  0  0  0  0  0  0  0  0  0  0
    4.3761    3.7192   -3.9105 H   0  0  0  0  0  0  0  0  0  0  0  0
    5.9392    5.0407   -5.2557 H   0  0  0  0  0  0  0  0  0  0  0  0
    6.9934    4.0619   -7.2792 H   0  0  0  0  0  0  0  0  0  0  0  0
    6.4643    1.7228   -7.9275 H   0  0  0  0  0  0  0  0  0  0  0  0
    4.9009    0.3873   -6.5817 H   0  0  0  0  0  0  0  0  0  0  0  0
    4.8303   -0.5972   -4.3494 H   0  0  0  0  0  0  0  0  0  0  0  0
    3.1024   -0.8503   -4.1142 H   0  0  0  0  0  0  0  0  0  0  0  0
    5.0531    0.4168   -2.1173 H   0  0  0  0  0  0  0  0  0  0  0  0
    4.1931   -1.1146   -1.9447 H   0  0  0  0  0  0  0  0  0  0  0  0
    3.0460    3.6579    0.8003 H   0  0  0  0  0  0  0  0  0  0  0  0
   -0.4823    3.0644    0.1693 H   0  0  0  0  0  0  0  0  0  0  0  0
    0.5201    4.7660    2.8397 H   0  0  0  0  0  0  0  0  0  0  0  0
    1.9130    4.0708    4.7615 H   0  0  0  0  0  0  0  0  0  0  0  0
    2.7905    1.7480    4.8881 H   0  0  0  0  0  0  0  0  0  0  0  0
    2.6963    0.2916    2.8876 H   0  0  0  0  0  0  0  0  0  0  0  0
  1  2  2  0  0  0  0
  2  3  1  0  0  0  0
  2 15  1  0  0  0  0
  3  4  1  0  0  0  0
  3 14  1  0  0  0  0
  4  5  1  0  0  0  0
  4 26  1  0  0  0  0
  4 27  1  0  0  0  0
  5  6  1  0  0  0  0
  5 28  1  0  0  0  0
  5 29  1  0  0  0  0
  6  7  1  0  0  0  0
  6 13  1  0  0  0  0
  7  8  1  0  0  0  0
  7 12  2  0  0  0  0
  8  9  2  0  0  0  0
  8 30  1  0  0  0  0
  9 10  1  0  0  0  0
  9 31  1  0  0  0  0
 10 11  2  0  0  0  0
 10 32  1  0  0  0  0
 11 12  1  0  0  0  0
 11 33  1  0  0  0  0
 12 34  1  0  0  0  0
 13 14  1  0  0  0  0
 13 35  1  0  0  0  0
 13 36  1  0  0  0  0
 14 37  1  0  0  0  0
 14 38  1  0  0  0  0
 15 16  2  0  0  0  0
 15 25  1  0  0  0  0
 16 17  1  0  0  0  0
 16 39  1  0  0  0  0
 17 18  2  0  0  0  0
 17 19  1  0  0  0  0
 19 20  1  0  0  0  0
 19 40  1  0  0  0  0
 20 21  1  0  0  0  0
 20 25  2  0  0  0  0
 21 22  2  0  0  0  0
 21 41  1  0  0  0  0
 22 23  1  0  0  0  0
 22 42  1  0  0  0  0
 23 24  2  0  0  0  0
 23 43  1  0  0  0  0
 24 25  1  0  0  0  0
 24 44  1  0  0  0  0
M  END
$$$$
