
 OpenBabel07202414203D

 44 47  0  0  1  0  0  0  0  0999 V2000
   -3.0905    4.3103   -2.9824 C   0  0  0  0  0  0  0  0  0  0  0  0
   -3.2715    4.3515   -1.6038 C   0  0  0  0  0  0  0  0  0  0  0  0
   -3.0914    3.1940   -0.8533 C   0  0  0  0  0  0  0  0  0  0  0  0
   -2.7649    1.9738   -1.4780 C   0  0  0  0  0  0  0  0  0  0  0  0
   -2.5079    1.9647   -2.8512 C   0  0  0  0  0  0  0  0  0  0  0  0
   -2.6818    3.1287   -3.5992 C   0  0  0  0  0  0  0  0  0  0  0  0
   -2.8736    0.7091   -0.6551 C   0  0  2  0  0  0  0  0  0  0  0  0
   -1.6084    0.2793    0.1573 C   0  0  0  0  0  0  0  0  0  0  0  0
   -1.6737    0.3216    1.3891 O   0  0  0  0  0  0  0  0  0  0  0  0
   -0.4882   -0.1281   -0.5552 N   0  0  0  0  0  0  0  0  0  0  0  0
    0.7889   -0.4052    0.0091 C   0  0  0  0  0  0  0  0  0  0  0  0
    0.9975   -0.6155    1.3792 C   0  0  0  0  0  0  0  0  0  0  0  0
    2.2878   -0.7608    1.9042 C   0  0  0  0  0  0  0  0  0  0  0  0
    3.3808   -0.7095    1.0564 C   0  0  0  0  0  0  0  0  0  0  0  0
    3.2079   -0.5497   -0.3101 C   0  0  0  0  0  0  0  0  0  0  0  0
    1.9072   -0.4241   -0.8368 C   0  0  0  0  0  0  0  0  0  0  0  0
    4.6182   -0.8082    1.5599 F   0  0  0  0  0  0  0  0  0  0  0  0
   -3.7264   -0.3170   -1.2681 N   0  0  0  0  0  0  0  0  0  0  0  0
   -4.8083   -0.8645   -0.4611 C   0  0  0  0  0  0  0  0  0  0  0  0
   -4.2974   -2.2222   -0.1671 C   0  0  0  0  0  0  0  0  0  0  0  0
   -4.4707   -3.0116    0.9504 C   0  0  0  0  0  0  0  0  0  0  0  0
   -3.6869   -4.1633    1.0462 C   0  0  0  0  0  0  0  0  0  0  0  0
   -2.8014   -4.5354    0.0142 C   0  0  0  0  0  0  0  0  0  0  0  0
   -2.6454   -3.7378   -1.1221 C   0  0  0  0  0  0  0  0  0  0  0  0
   -3.3834   -2.5771   -1.1614 C   0  0  0  0  0  0  0  0  0  0  0  0
   -3.0604   -1.3573   -1.9195 C   0  0  0  0  0  0  0  0  0  0  0  0
   -2.1681   -1.2767   -2.7449 O   0  0  0  0  0  0  0  0  0  0  0  0
   -3.2797    5.1975   -3.5774 H   0  0  0  0  0  0  0  0  0  0  0  0
   -3.5886    5.2675   -1.1151 H   0  0  0  0  0  0  0  0  0  0  0  0
   -3.2679    3.2358    0.2208 H   0  0  0  0  0  0  0  0  0  0  0  0
   -2.2363    1.0482   -3.3671 H   0  0  0  0  0  0  0  0  0  0  0  0
   -2.5373    3.1014   -4.6758 H   0  0  0  0  0  0  0  0  0  0  0  0
   -3.5130    1.0496    0.1745 H   0  0  0  0  0  0  0  0  0  0  0  0
   -0.5640   -0.1283   -1.5711 H   0  0  0  0  0  0  0  0  0  0  0  0
    0.1712   -0.6778    2.0791 H   0  0  0  0  0  0  0  0  0  0  0  0
    2.4349   -0.9019    2.9694 H   0  0  0  0  0  0  0  0  0  0  0  0
    4.0731   -0.5201   -0.9600 H   0  0  0  0  0  0  0  0  0  0  0  0
    1.7960   -0.2814   -1.9074 H   0  0  0  0  0  0  0  0  0  0  0  0
   -5.7065   -0.9282   -1.0934 H   0  0  0  0  0  0  0  0  0  0  0  0
   -5.0352   -0.2646    0.4256 H   0  0  0  0  0  0  0  0  0  0  0  0
   -5.1140   -2.7021    1.7685 H   0  0  0  0  0  0  0  0  0  0  0  0
   -3.7222   -4.7555    1.9590 H   0  0  0  0  0  0  0  0  0  0  0  0
   -2.1724   -5.4118    0.1384 H   0  0  0  0  0  0  0  0  0  0  0  0
   -1.9028   -3.9535   -1.8764 H   0  0  0  0  0  0  0  0  0  0  0  0
  1  2  1  0  0  0  0
  1  6  2  0  0  0  0
  1 28  1  0  0  0  0
  2  3  2  0  0  0  0
  2 29  1  0  0  0  0
  3  4  1  0  0  0  0
  3 30  1  0  0  0  0
  4  5  2  0  0  0  0
  5  6  1  0  0  0  0
  5 31  1  0  0  0  0
  6 32  1  0  0  0  0
  7 18  1  0  0  0  0
  7  8  1  0  0  0  0
  7  4  1  0  0  0  0
  7 33  1  1  0  0  0
  8  9  2  0  0  0  0
  8 10  1  0  0  0  0
 10 11  1  0  0  0  0
 10 34  1  0  0  0  0
 11 12  1  0  0  0  0
 11 16  2  0  0  0  0
 12 13  2  0  0  0  0
 12 35  1  0  0  0  0
 13 14  1  0  0  0  0
 13 36  1  0  0  0  0
 14 15  2  0  0  0  0
 14 17  1  0  0  0  0
 15 16  1  0  0  0  0
 15 37  1  0  0  0  0
 16 38  1  0  0  0  0
 18 19  1  0  0  0  0
 18 26  1  0  0  0  0
 19 20  1  0  0  0  0
 19 39  1  0  0  0  0
 19 40  1  0  0  0  0
 20 21  1  0  0  0  0
 20 25  2  0  0  0  0
 21 22  2  0  0  0  0
 21 41  1  0  0  0  0
 22 23  1  0  0  0  0
 22 42  1  0  0  0  0
 23 24  2  0  0  0  0
 23 43  1  0  0  0  0
 24 25  1  0  0  0  0
 24 44  1  0  0  0  0
 25 26  1  0  0  0  0
 26 27  2  0  0  0  0
M  END
$$$$
