
 OpenBabel07202414123D

 64 68  0  0  1  0  0  0  0  0999 V2000
    4.5735   -3.6693   -3.7364 C   0  0  0  0  0  0  0  0  0  0  0  0
    4.7927   -2.6222   -2.6441 C   0  0  0  0  0  0  0  0  0  0  0  0
    5.7110   -1.5067   -3.1480 C   0  0  0  0  0  0  0  0  0  0  0  0
    3.5269   -2.0375   -2.3052 O   0  0  0  0  0  0  0  0  0  0  0  0
    5.3534   -3.3216   -1.3920 C   0  0  0  0  0  0  0  0  0  0  0  0
    5.5923   -2.4177   -0.2855 N   0  0  0  0  0  0  0  0  0  0  0  0
    6.2261   -2.8866    0.8500 C   0  0  0  0  0  0  0  0  0  0  0  0
    6.6689   -4.0352    0.9302 O   0  0  0  0  0  0  0  0  0  0  0  0
    6.3240   -1.8304    1.9586 C   0  0  0  0  0  0  0  0  0  0  0  0
    6.9678   -2.3436    3.1757 N   0  0  0  0  0  0  0  0  0  0  0  0
    6.1537   -3.3138    3.9161 C   0  0  0  0  0  0  0  0  0  0  0  0
    5.1462   -2.7145    4.8753 C   0  0  0  0  0  0  0  0  0  0  0  0
    4.0546   -3.5023    5.2892 C   0  0  0  0  0  0  0  0  0  0  0  0
    3.1120   -3.0121    6.1968 C   0  0  0  0  0  0  0  0  0  0  0  0
    3.2630   -1.7368    6.7151 C   0  0  0  0  0  0  0  0  0  0  0  0
    2.1053   -1.1001    7.8162 Cl  0  0  0  0  0  0  0  0  0  0  0  0
    4.3506   -0.9543    6.3365 C   0  0  0  0  0  0  0  0  0  0  0  0
    5.3094   -1.4255    5.4140 C   0  0  0  0  0  0  0  0  0  0  0  0
    6.4448   -0.5131    4.9259 C   0  0  3  0  0  0  0  0  0  0  0  0
    7.2291    0.1262    6.1009 C   0  0  0  0  0  0  0  0  0  0  0  0
    6.8860    1.6000    6.0833 C   0  0  0  0  0  0  0  0  0  0  0  0
    5.7143    1.7147    5.2583 N   0  0  0  0  0  0  0  0  0  0  0  0
    4.9595    2.9235    5.2233 C   0  0  0  0  0  0  0  0  0  0  0  0
    4.5595    3.4883    4.0117 C   0  0  0  0  0  0  0  0  0  0  0  0
    4.0508    4.7355    3.8800 N   0  0  0  0  0  0  0  0  0  0  0  0
    3.8678    5.4367    5.0179 C   0  0  0  0  0  0  0  0  0  0  0  0
    4.0672    4.9281    6.2977 C   0  0  0  0  0  0  0  0  0  0  0  0
    3.7166    5.6829    7.4345 C   0  0  0  0  0  0  0  0  0  0  0  0
    3.8334    5.1431    8.7139 C   0  0  0  0  0  0  0  0  0  0  0  0
    4.2849    3.8426    8.8667 C   0  0  0  0  0  0  0  0  0  0  0  0
    4.6420    3.0953    7.7378 C   0  0  0  0  0  0  0  0  0  0  0  0
    4.6002    3.6211    6.4187 C   0  0  0  0  0  0  0  0  0  0  0  0
    5.7878    0.7252    4.2582 C   0  0  0  0  0  0  0  0  0  0  0  0
    5.2899    0.7566    3.1452 O   0  0  0  0  0  0  0  0  0  0  0  0
    7.4634   -1.2798    4.0491 C   0  0  0  0  0  0  0  0  0  0  0  0
    4.1185   -3.2242   -4.6274 H   0  0  0  0  0  0  0  0  0  0  0  0
    3.8865   -4.4508   -3.3919 H   0  0  0  0  0  0  0  0  0  0  0  0
    5.5169   -4.1436   -4.0279 H   0  0  0  0  0  0  0  0  0  0  0  0
    5.3020   -1.0508   -4.0575 H   0  0  0  0  0  0  0  0  0  0  0  0
    6.7149   -1.8804   -3.3721 H   0  0  0  0  0  0  0  0  0  0  0  0
    5.7941   -0.6955   -2.4158 H   0  0  0  0  0  0  0  0  0  0  0  0
    3.1295   -1.6928   -3.1244 H   0  0  0  0  0  0  0  0  0  0  0  0
    6.2951   -3.8345   -1.6222 H   0  0  0  0  0  0  0  0  0  0  0  0
    4.6407   -4.0711   -1.0265 H   0  0  0  0  0  0  0  0  0  0  0  0
    4.9533   -1.6360   -0.1869 H   0  0  0  0  0  0  0  0  0  0  0  0
    5.3226   -1.4417    2.1566 H   0  0  0  0  0  0  0  0  0  0  0  0
    6.9446   -1.0316    1.5325 H   0  0  0  0  0  0  0  0  0  0  0  0
    6.8292   -3.9418    4.5123 H   0  0  0  0  0  0  0  0  0  0  0  0
    5.6383   -3.9988    3.2332 H   0  0  0  0  0  0  0  0  0  0  0  0
    3.9276   -4.5089    4.8947 H   0  0  0  0  0  0  0  0  0  0  0  0
    2.2677   -3.6272    6.4886 H   0  0  0  0  0  0  0  0  0  0  0  0
    4.4239    0.0454    6.7510 H   0  0  0  0  0  0  0  0  0  0  0  0
    8.3171    0.0245    5.9965 H   0  0  0  0  0  0  0  0  0  0  0  0
    6.9726   -0.3270    7.0651 H   0  0  0  0  0  0  0  0  0  0  0  0
    7.6858    2.1622    5.5830 H   0  0  0  0  0  0  0  0  0  0  0  0
    6.7959    1.9932    7.0927 H   0  0  0  0  0  0  0  0  0  0  0  0
    4.6778    2.9748    3.0634 H   0  0  0  0  0  0  0  0  0  0  0  0
    3.5135    6.4527    4.8642 H   0  0  0  0  0  0  0  0  0  0  0  0
    3.3177    6.6881    7.3288 H   0  0  0  0  0  0  0  0  0  0  0  0
    3.5361    5.7243    9.5837 H   0  0  0  0  0  0  0  0  0  0  0  0
    4.3406    3.3961    9.8555 H   0  0  0  0  0  0  0  0  0  0  0  0
    4.9143    2.0596    7.9113 H   0  0  0  0  0  0  0  0  0  0  0  0
    8.1746   -1.7849    4.7211 H   0  0  0  0  0  0  0  0  0  0  0  0
    8.0833   -0.5780    3.4755 H   0  0  0  0  0  0  0  0  0  0  0  0
  1  2  1  0  0  0  0
  1 36  1  0  0  0  0
  1 37  1  0  0  0  0
  1 38  1  0  0  0  0
  2  3  1  0  0  0  0
  2  4  1  0  0  0  0
  2  5  1  0  0  0  0
  3 39  1  0  0  0  0
  3 40  1  0  0  0  0
  3 41  1  0  0  0  0
  4 42  1  0  0  0  0
  5  6  1  0  0  0  0
  5 43  1  0  0  0  0
  5 44  1  0  0  0  0
  6  7  1  0  0  0  0
  6 45  1  0  0  0  0
  7  8  2  0  0  0  0
  7  9  1  0  0  0  0
  9 10  1  0  0  0  0
  9 46  1  0  0  0  0
  9 47  1  0  0  0  0
 10 11  1  0  0  0  0
 10 35  1  0  0  0  0
 11 12  1  0  0  0  0
 11 48  1  0  0  0  0
 11 49  1  0  0  0  0
 12 13  1  0  0  0  0
 12 18  2  0  0  0  0
 13 14  2  0  0  0  0
 13 50  1  0  0  0  0
 14 15  1  0  0  0  0
 14 51  1  0  0  0  0
 15 16  1  0  0  0  0
 15 17  2  0  0  0  0
 17 18  1  0  0  0  0
 17 52  1  0  0  0  0
 18 19  1  0  0  0  0
 19 20  1  0  0  0  0
 19 33  1  0  0  0  0
 19 35  1  0  0  0  0
 20 21  1  0  0  0  0
 20 53  1  0  0  0  0
 20 54  1  0  0  0  0
 21 22  1  0  0  0  0
 21 55  1  0  0  0  0
 21 56  1  0  0  0  0
 22 23  1  0  0  0  0
 22 33  1  0  0  0  0
 23 24  1  0  0  0  0
 23 32  2  0  0  0  0
 24 25  2  0  0  0  0
 24 57  1  0  0  0  0
 25 26  1  0  0  0  0
 26 27  2  0  0  0  0
 26 58  1  0  0  0  0
 27 28  1  0  0  0  0
 27 32  1  0  0  0  0
 28 29  2  0  0  0  0
 28 59  1  0  0  0  0
 29 30  1  0  0  0  0
 29 60  1  0  0  0  0
 30 31  2  0  0  0  0
 30 61  1  0  0  0  0
 31 32  1  0  0  0  0
 31 62  1  0  0  0  0
 33 34  2  0  0  0  0
 35 63  1  0  0  0  0
 35 64  1  0  0  0  0
M  END
$$$$
