
 OpenBabel07202414133D

 55 58  0  0  1  0  0  0  0  0999 V2000
    1.4938    0.4643    0.3565 C   0  0  0  0  0  0  0  0  0  0  0  0
    3.0260    0.4121    0.2015 C   0  0  3  0  0  0  0  0  0  0  0  0
    3.3607   -0.4489   -1.0221 C   0  0  0  0  0  0  0  0  0  0  0  0
    3.2123   -1.8499   -0.9663 C   0  0  0  0  0  0  0  0  0  0  0  0
    3.4578   -2.6661   -2.0911 C   0  0  0  0  0  0  0  0  0  0  0  0
    3.9061   -2.0637   -3.2778 C   0  0  0  0  0  0  0  0  0  0  0  0
    4.0435   -0.6725   -3.3347 C   0  0  0  0  0  0  0  0  0  0  0  0
    3.7644    0.1441   -2.2291 C   0  0  0  0  0  0  0  0  0  0  0  0
    3.9625    1.6343   -2.3473 C   0  0  0  0  0  0  0  0  0  0  0  0
    3.3268    2.4179   -1.2014 C   0  0  0  0  0  0  0  0  0  0  0  0
    3.6149    1.7721    0.0815 N   0  0  0  0  0  0  0  0  0  0  0  0
    4.6276    2.1499    0.9781 C   0  0  0  0  0  0  0  0  0  0  0  0
    4.9471    1.4465    1.9340 O   0  0  0  0  0  0  0  0  0  0  0  0
    5.2255    3.3779    0.7295 N   0  0  0  0  0  0  0  0  0  0  0  0
    6.2954    3.9920    1.3774 C   0  0  0  0  0  0  0  0  0  0  0  0
    7.0764    3.4684    2.3413 C   0  0  0  0  0  0  0  0  0  0  0  0
    8.0036    4.2291    3.0599 N   0  0  0  0  0  0  0  0  0  0  0  0
    7.9631    5.6129    2.9737 C   0  0  0  0  0  0  0  0  0  0  0  0
    8.3274    6.4041    3.8333 O   0  0  0  0  0  0  0  0  0  0  0  0
    7.7162    6.0374    1.5981 C   0  0  0  0  0  0  0  0  0  0  0  0
    6.8157    5.2915    0.8249 C   0  0  0  0  0  0  0  0  0  0  0  0
    6.7395    5.5990   -0.5386 C   0  0  0  0  0  0  0  0  0  0  0  0
    7.6825    6.4615   -1.1173 C   0  0  0  0  0  0  0  0  0  0  0  0
    8.6876    7.0486   -0.3447 C   0  0  0  0  0  0  0  0  0  0  0  0
    8.6762    6.8798    1.0287 C   0  0  0  0  0  0  0  0  0  0  0  0
    9.3413    3.7213    3.2998 C   0  0  0  0  0  0  0  0  0  0  0  0
    4.2334   -2.6555   -4.4722 O   0  0  0  0  0  0  0  0  0  0  0  0
    4.1731   -4.0688   -4.5945 C   0  0  0  0  0  0  0  0  0  0  0  0
    3.3151   -4.0277   -2.0762 O   0  0  0  0  0  0  0  0  0  0  0  0
    2.7921   -4.6649   -0.9176 C   0  0  0  0  0  0  0  0  0  0  0  0
    1.0817   -0.5353    0.5402 H   0  0  0  0  0  0  0  0  0  0  0  0
    0.9986    0.8375   -0.5478 H   0  0  0  0  0  0  0  0  0  0  0  0
    1.1996    1.1087    1.1895 H   0  0  0  0  0  0  0  0  0  0  0  0
    3.4366   -0.0857    1.0865 H   0  0  0  0  0  0  0  0  0  0  0  0
    2.8750   -2.2919   -0.0356 H   0  0  0  0  0  0  0  0  0  0  0  0
    4.3827   -0.2213   -4.2698 H   0  0  0  0  0  0  0  0  0  0  0  0
    3.5378    1.9931   -3.2931 H   0  0  0  0  0  0  0  0  0  0  0  0
    5.0411    1.8283   -2.3641 H   0  0  0  0  0  0  0  0  0  0  0  0
    2.2375    2.4559   -1.3229 H   0  0  0  0  0  0  0  0  0  0  0  0
    3.6613    3.4548   -1.2457 H   0  0  0  0  0  0  0  0  0  0  0  0
    4.7001    4.0001    0.1449 H   0  0  0  0  0  0  0  0  0  0  0  0
    7.0076    2.4228    2.6553 H   0  0  0  0  0  0  0  0  0  0  0  0
    6.0544    5.0820   -1.1995 H   0  0  0  0  0  0  0  0  0  0  0  0
    7.6866    6.6103   -2.1916 H   0  0  0  0  0  0  0  0  0  0  0  0
    9.5036    7.5924   -0.8146 H   0  0  0  0  0  0  0  0  0  0  0  0
    9.4810    7.2796    1.6448 H   0  0  0  0  0  0  0  0  0  0  0  0
    9.3395    2.9004    4.0130 H   0  0  0  0  0  0  0  0  0  0  0  0
    9.9973    4.5252    3.6615 H   0  0  0  0  0  0  0  0  0  0  0  0
    9.7611    3.4051    2.3353 H   0  0  0  0  0  0  0  0  0  0  0  0
    4.5326   -4.3309   -5.5949 H   0  0  0  0  0  0  0  0  0  0  0  0
    3.1417   -4.4264   -4.5195 H   0  0  0  0  0  0  0  0  0  0  0  0
    4.8357   -4.5639   -3.8786 H   0  0  0  0  0  0  0  0  0  0  0  0
    2.7595   -5.7451   -1.1133 H   0  0  0  0  0  0  0  0  0  0  0  0
    1.7703   -4.3341   -0.7119 H   0  0  0  0  0  0  0  0  0  0  0  0
    3.4451   -4.5075   -0.0567 H   0  0  0  0  0  0  0  0  0  0  0  0
  1  2  1  0  0  0  0
  1 31  1  0  0  0  0
  1 32  1  0  0  0  0
  1 33  1  0  0  0  0
  2  3  1  0  0  0  0
  2 11  1  0  0  0  0
  2 34  1  0  0  0  0
  3  4  1  0  0  0  0
  3  8  2  0  0  0  0
  4  5  2  0  0  0  0
  4 35  1  0  0  0  0
  5  6  1  0  0  0  0
  5 29  1  0  0  0  0
  6  7  2  0  0  0  0
  6 27  1  0  0  0  0
  7  8  1  0  0  0  0
  7 36  1  0  0  0  0
  8  9  1  0  0  0  0
  9 10  1  0  0  0  0
  9 37  1  0  0  0  0
  9 38  1  0  0  0  0
 10 11  1  0  0  0  0
 10 39  1  0  0  0  0
 10 40  1  0  0  0  0
 11 12  1  0  0  0  0
 12 13  2  0  0  0  0
 12 14  1  0  0  0  0
 14 15  1  0  0  0  0
 14 41  1  0  0  0  0
 15 16  2  0  0  0  0
 15 21  1  0  0  0  0
 16 17  1  0  0  0  0
 16 42  1  0  0  0  0
 17 18  1  0  0  0  0
 17 26  1  0  0  0  0
 18 19  2  0  0  0  0
 18 20  1  0  0  0  0
 20 21  1  0  0  0  0
 20 25  2  0  0  0  0
 21 22  2  0  0  0  0
 22 23  1  0  0  0  0
 22 43  1  0  0  0  0
 23 24  2  0  0  0  0
 23 44  1  0  0  0  0
 24 25  1  0  0  0  0
 24 45  1  0  0  0  0
 25 46  1  0  0  0  0
 26 47  1  0  0  0  0
 26 48  1  0  0  0  0
 26 49  1  0  0  0  0
 27 28  1  0  0  0  0
 28 50  1  0  0  0  0
 28 51  1  0  0  0  0
 28 52  1  0  0  0  0
 29 30  1  0  0  0  0
 30 53  1  0  0  0  0
 30 54  1  0  0  0  0
 30 55  1  0  0  0  0
M  END
$$$$
