
 OpenBabel07202414133D

 46 48  0  0  1  0  0  0  0  0999 V2000
    5.7416   -0.0124   -0.9827 C   0  0  0  0  0  0  0  0  0  0  0  0
    5.0349    0.9498   -0.0442 C   0  0  0  0  0  0  0  0  0  0  0  0
    5.2074    0.4632    1.2920 O   0  0  0  0  0  0  0  0  0  0  0  0
    4.2851   -0.4447    1.6953 C   0  0  0  0  0  0  0  0  0  0  0  0
    3.2147   -0.6665    1.1581 O   0  0  0  0  0  0  0  0  0  0  0  0
    4.8257   -1.2413    2.8274 C   0  0  0  0  0  0  0  0  0  0  0  0
    4.0341   -2.2759    3.3291 C   0  0  0  0  0  0  0  0  0  0  0  0
    4.5255   -3.1191    4.3295 C   0  0  0  0  0  0  0  0  0  0  0  0
    5.8102   -2.9437    4.8498 C   0  0  0  0  0  0  0  0  0  0  0  0
    6.6061   -1.9101    4.3406 C   0  0  0  0  0  0  0  0  0  0  0  0
    6.1170   -1.0600    3.3393 C   0  0  0  0  0  0  0  0  0  0  0  0
    6.3649   -3.7718    5.8517 N   0  0  0  0  0  0  0  0  0  0  0  0
    5.7200   -4.8063    6.5046 C   0  0  0  0  0  0  0  0  0  0  0  0
    4.5281   -5.0899    6.4185 O   0  0  0  0  0  0  0  0  0  0  0  0
    6.6208   -5.6026    7.4343 C   0  0  0  0  0  0  0  0  0  0  0  0
    6.1594   -7.0575    7.4167 C   0  0  3  0  0  0  0  0  0  0  0  0
    6.5143   -7.7380    6.1089 C   0  0  0  0  0  0  0  0  0  0  0  0
    6.6207   -7.0933    5.0699 O   0  0  0  0  0  0  0  0  0  0  0  0
    6.6657   -9.1078    6.2842 N   0  0  0  0  0  0  0  0  0  0  0  0
    6.8885   -9.4935    7.5934 C   0  0  0  0  0  0  0  0  0  0  0  0
    7.0900  -10.6040    8.0567 O   0  0  0  0  0  0  0  0  0  0  0  0
    6.9497   -8.0899    8.6592 S   0  0  0  0  0  0  0  0  0  0  0  0
    6.7204  -10.0367    5.1802 C   0  0  0  0  0  0  0  0  0  0  0  0
    6.9642   -9.6136    3.8593 C   0  0  0  0  0  0  0  0  0  0  0  0
    7.0223  -10.5173    2.7904 C   0  0  0  0  0  0  0  0  0  0  0  0
    6.8253  -11.8717    3.0129 C   0  0  0  0  0  0  0  0  0  0  0  0
    6.5666  -12.3203    4.3005 C   0  0  0  0  0  0  0  0  0  0  0  0
    6.5126  -11.4141    5.3687 C   0  0  0  0  0  0  0  0  0  0  0  0
    5.6973    0.3357   -2.0169 H   0  0  0  0  0  0  0  0  0  0  0  0
    5.2930   -1.0104   -0.9263 H   0  0  0  0  0  0  0  0  0  0  0  0
    6.7907   -0.1264   -0.6876 H   0  0  0  0  0  0  0  0  0  0  0  0
    3.9780    1.0696   -0.3082 H   0  0  0  0  0  0  0  0  0  0  0  0
    5.5013    1.9382   -0.0974 H   0  0  0  0  0  0  0  0  0  0  0  0
    3.0359   -2.4520    2.9318 H   0  0  0  0  0  0  0  0  0  0  0  0
    3.8749   -3.9226    4.6582 H   0  0  0  0  0  0  0  0  0  0  0  0
    7.6182   -1.7515    4.7033 H   0  0  0  0  0  0  0  0  0  0  0  0
    6.7625   -0.2738    2.9548 H   0  0  0  0  0  0  0  0  0  0  0  0
    7.3360   -3.6008    6.0863 H   0  0  0  0  0  0  0  0  0  0  0  0
    6.5083   -5.1638    8.4330 H   0  0  0  0  0  0  0  0  0  0  0  0
    7.6696   -5.5102    7.1297 H   0  0  0  0  0  0  0  0  0  0  0  0
    5.0767   -7.1453    7.5626 H   0  0  0  0  0  0  0  0  0  0  0  0
    7.1509   -8.5762    3.6054 H   0  0  0  0  0  0  0  0  0  0  0  0
    7.2238  -10.1501    1.7860 H   0  0  0  0  0  0  0  0  0  0  0  0
    6.8730  -12.5730    2.1839 H   0  0  0  0  0  0  0  0  0  0  0  0
    6.3972  -13.3795    4.4826 H   0  0  0  0  0  0  0  0  0  0  0  0
    6.2696  -11.8297    6.3430 H   0  0  0  0  0  0  0  0  0  0  0  0
  1  2  1  0  0  0  0
  1 29  1  0  0  0  0
  1 30  1  0  0  0  0
  1 31  1  0  0  0  0
  2  3  1  0  0  0  0
  2 32  1  0  0  0  0
  2 33  1  0  0  0  0
  3  4  1  0  0  0  0
  4  5  2  0  0  0  0
  4  6  1  0  0  0  0
  6  7  1  0  0  0  0
  6 11  2  0  0  0  0
  7  8  2  0  0  0  0
  7 34  1  0  0  0  0
  8  9  1  0  0  0  0
  8 35  1  0  0  0  0
  9 10  2  0  0  0  0
  9 12  1  0  0  0  0
 10 11  1  0  0  0  0
 10 36  1  0  0  0  0
 11 37  1  0  0  0  0
 12 13  1  0  0  0  0
 12 38  1  0  0  0  0
 13 14  2  0  0  0  0
 13 15  1  0  0  0  0
 15 16  1  0  0  0  0
 15 39  1  0  0  0  0
 15 40  1  0  0  0  0
 16 17  1  0  0  0  0
 16 22  1  0  0  0  0
 16 41  1  0  0  0  0
 17 18  2  0  0  0  0
 17 19  1  0  0  0  0
 19 20  1  0  0  0  0
 19 23  1  0  0  0  0
 20 21  2  0  0  0  0
 20 22  1  0  0  0  0
 23 24  1  0  0  0  0
 23 28  2  0  0  0  0
 24 25  2  0  0  0  0
 24 42  1  0  0  0  0
 25 26  1  0  0  0  0
 25 43  1  0  0  0  0
 26 27  2  0  0  0  0
 26 44  1  0  0  0  0
 27 28  1  0  0  0  0
 27 45  1  0  0  0  0
 28 46  1  0  0  0  0
M  END
$$$$
