
 OpenBabel07202414143D

 35 37  0  0  0  0  0  0  0  0999 V2000
    1.3315   -1.3010   -0.7601 C   0  0  0  0  0  0  0  0  0  0  0  0
    2.7556   -1.4022   -0.7539 O   0  0  0  0  0  0  0  0  0  0  0  0
    3.4124   -0.4054   -1.4127 C   0  0  0  0  0  0  0  0  0  0  0  0
    2.8553    0.5020   -2.0180 O   0  0  0  0  0  0  0  0  0  0  0  0
    4.8561   -0.5316   -1.2964 C   0  0  0  0  0  0  0  0  0  0  0  0
    5.5673   -0.9954   -0.1590 C   0  0  0  0  0  0  0  0  0  0  0  0
    5.0933   -1.4782    1.1644 C   0  0  0  0  0  0  0  0  0  0  0  0
    6.8784   -0.9144   -0.3397 N   0  0  0  0  0  0  0  0  0  0  0  0
    7.0605   -0.4258   -1.5935 N   0  0  0  0  0  0  0  0  0  0  0  0
    8.3988   -0.2959   -2.0424 C   0  0  0  0  0  0  0  0  0  0  0  0
    8.5863   -0.5381   -3.2330 O   0  0  0  0  0  0  0  0  0  0  0  0
    9.4596    0.1427   -1.1191 C   0  0  0  0  0  0  0  0  0  0  0  0
    9.4200    0.4122    0.2405 C   0  0  0  0  0  0  0  0  0  0  0  0
   10.6590    0.8728    0.7617 C   0  0  0  0  0  0  0  0  0  0  0  0
   11.6164    0.9738   -0.2176 C   0  0  0  0  0  0  0  0  0  0  0  0
   11.0232    0.4881   -1.7462 S   0  0  0  0  0  0  0  0  0  0  0  0
    5.8425   -0.1798   -2.2355 C   0  0  0  0  0  0  0  0  0  0  0  0
    5.6840    0.3466   -3.5813 C   0  0  0  0  0  0  0  0  0  0  0  0
    4.4503   -0.2771   -4.6341 S   0  0  0  0  0  0  0  0  0  0  0  0
    4.7797    0.7923   -5.8592 N   0  0  0  0  0  0  0  0  0  0  0  0
    5.8053    1.5717   -5.5925 N   0  0  0  0  0  0  0  0  0  0  0  0
    6.3440    1.3339   -4.3252 C   0  0  0  0  0  0  0  0  0  0  0  0
    7.5086    2.1918   -3.9789 C   0  0  0  0  0  0  0  0  0  0  0  0
    0.9437   -2.0108   -0.0239 H   0  0  0  0  0  0  0  0  0  0  0  0
    0.9435   -1.5729   -1.7457 H   0  0  0  0  0  0  0  0  0  0  0  0
    1.0012   -0.2979   -0.4722 H   0  0  0  0  0  0  0  0  0  0  0  0
    4.0076   -1.5084    1.2560 H   0  0  0  0  0  0  0  0  0  0  0  0
    5.4682   -0.8179    1.9546 H   0  0  0  0  0  0  0  0  0  0  0  0
    5.4760   -2.4866    1.3579 H   0  0  0  0  0  0  0  0  0  0  0  0
    8.5397    0.2916    0.8678 H   0  0  0  0  0  0  0  0  0  0  0  0
   10.8327    1.1275    1.8025 H   0  0  0  0  0  0  0  0  0  0  0  0
   12.6391    1.3092   -0.1101 H   0  0  0  0  0  0  0  0  0  0  0  0
    7.6140    3.0056   -4.7059 H   0  0  0  0  0  0  0  0  0  0  0  0
    8.4456    1.6353   -4.0299 H   0  0  0  0  0  0  0  0  0  0  0  0
    7.4018    2.6368   -2.9873 H   0  0  0  0  0  0  0  0  0  0  0  0
  1  2  1  0  0  0  0
  1 24  1  0  0  0  0
  1 25  1  0  0  0  0
  1 26  1  0  0  0  0
  2  3  1  0  0  0  0
  3  4  2  0  0  0  0
  3  5  1  0  0  0  0
  5  6  1  0  0  0  0
  5 17  2  0  0  0  0
  6  7  1  0  0  0  0
  6  8  2  0  0  0  0
  7 27  1  0  0  0  0
  7 28  1  0  0  0  0
  7 29  1  0  0  0  0
  8  9  1  0  0  0  0
  9 10  1  0  0  0  0
  9 17  1  0  0  0  0
 10 11  2  0  0  0  0
 10 12  1  0  0  0  0
 12 13  2  0  0  0  0
 12 16  1  0  0  0  0
 13 14  1  0  0  0  0
 13 30  1  0  0  0  0
 14 15  2  0  0  0  0
 14 31  1  0  0  0  0
 15 16  1  0  0  0  0
 15 32  1  0  0  0  0
 17 18  1  0  0  0  0
 18 19  1  0  0  0  0
 18 22  2  0  0  0  0
 19 20  1  0  0  0  0
 20 21  2  0  0  0  0
 21 22  1  0  0  0  0
 22 23  1  0  0  0  0
 23 33  1  0  0  0  0
 23 34  1  0  0  0  0
 23 35  1  0  0  0  0
M  END
$$$$
