
 OpenBabel07202414133D

 64 68  0  0  1  0  0  0  0  0999 V2000
    1.4994    0.6392   -0.1407 C   0  0  0  0  0  0  0  0  0  0  0  0
    2.4642    0.5204    1.0467 C   0  0  3  0  0  0  0  0  0  0  0  0
    2.3840    1.7646    1.9754 C   0  0  0  0  0  0  0  0  0  0  0  0
    2.8793    2.9919    1.3106 N   0  0  0  0  0  0  0  0  0  0  0  0
    2.7944    4.1385    2.2135 C   0  0  0  0  0  0  0  0  0  0  0  0
    4.2758    2.7899    0.8519 C   0  0  0  0  0  0  0  0  0  0  0  0
    4.4196    1.5417   -0.0471 C   0  0  0  0  0  0  0  0  0  0  0  0
    3.8693    0.3380    0.6148 N   0  0  0  0  0  0  0  0  0  0  0  0
    4.7698   -0.5087    1.2581 C   0  0  0  0  0  0  0  0  0  0  0  0
    5.9886   -0.3301    1.1805 O   0  0  0  0  0  0  0  0  0  0  0  0
    4.1836   -1.7423    1.9862 C   0  0  0  0  0  0  0  0  0  0  0  0
    5.2075   -2.6832    2.6984 C   0  0  3  0  0  0  0  0  0  0  0  0
    5.8765   -1.8966    3.8814 C   0  0  0  0  0  0  0  0  0  0  0  0
    5.5693   -0.7346    4.1347 O   0  0  0  0  0  0  0  0  0  0  0  0
    6.7083   -2.6749    4.6733 N   0  0  0  0  0  0  0  0  0  0  0  0
    7.4154   -2.2974    5.8463 C   0  0  0  0  0  0  0  0  0  0  0  0
    7.4633   -0.9854    6.3167 C   0  0  0  0  0  0  0  0  0  0  0  0
    8.2823   -0.5569    7.3064 N   0  0  0  0  0  0  0  0  0  0  0  0
    9.0715   -1.4862    7.8814 C   0  0  0  0  0  0  0  0  0  0  0  0
    9.0248   -2.8485    7.5934 C   0  0  0  0  0  0  0  0  0  0  0  0
    9.8011   -3.7705    8.3205 C   0  0  0  0  0  0  0  0  0  0  0  0
    9.7001   -5.1369    8.0732 C   0  0  0  0  0  0  0  0  0  0  0  0
    8.8378   -5.5931    7.0860 C   0  0  0  0  0  0  0  0  0  0  0  0
    8.0866   -4.6822    6.3360 C   0  0  0  0  0  0  0  0  0  0  0  0
    8.1602   -3.2818    6.5611 C   0  0  0  0  0  0  0  0  0  0  0  0
    6.2704   -3.2386    1.7152 C   0  0  0  0  0  0  0  0  0  0  0  0
    5.6669   -4.3374    0.8564 C   0  0  0  0  0  0  0  0  0  0  0  0
    5.3547   -5.4776    1.6501 O   0  0  0  0  0  0  0  0  0  0  0  0
    4.6251   -5.1960    2.7708 C   0  0  0  0  0  0  0  0  0  0  0  0
    4.0964   -6.3197    3.4163 C   0  0  0  0  0  0  0  0  0  0  0  0
    3.3989   -6.1810    4.6131 C   0  0  0  0  0  0  0  0  0  0  0  0
    3.2166   -4.9123    5.1510 C   0  0  0  0  0  0  0  0  0  0  0  0
    2.4192   -4.7399    6.6658 Cl  0  0  0  0  0  0  0  0  0  0  0  0
    3.7195   -3.7819    4.4980 C   0  0  0  0  0  0  0  0  0  0  0  0
    4.4651   -3.9077    3.3067 C   0  0  0  0  0  0  0  0  0  0  0  0
    0.4636    0.6524    0.2163 H   0  0  0  0  0  0  0  0  0  0  0  0
    1.6129   -0.2134   -0.8192 H   0  0  0  0  0  0  0  0  0  0  0  0
    1.6522    1.5506   -0.7260 H   0  0  0  0  0  0  0  0  0  0  0  0
    2.1406   -0.3489    1.6183 H   0  0  0  0  0  0  0  0  0  0  0  0
    2.9737    1.5680    2.8814 H   0  0  0  0  0  0  0  0  0  0  0  0
    1.3425    1.9066    2.2857 H   0  0  0  0  0  0  0  0  0  0  0  0
    1.7590    4.2973    2.5346 H   0  0  0  0  0  0  0  0  0  0  0  0
    3.1070    5.0546    1.7003 H   0  0  0  0  0  0  0  0  0  0  0  0
    3.4161    4.0126    3.1070 H   0  0  0  0  0  0  0  0  0  0  0  0
    4.9472    2.6873    1.7140 H   0  0  0  0  0  0  0  0  0  0  0  0
    4.6009    3.6683    0.2810 H   0  0  0  0  0  0  0  0  0  0  0  0
    5.4703    1.3972   -0.3189 H   0  0  0  0  0  0  0  0  0  0  0  0
    3.8750    1.6926   -0.9882 H   0  0  0  0  0  0  0  0  0  0  0  0
    3.6061   -2.3039    1.2405 H   0  0  0  0  0  0  0  0  0  0  0  0
    3.4776   -1.3771    2.7421 H   0  0  0  0  0  0  0  0  0  0  0  0
    6.8171   -3.6377    4.3878 H   0  0  0  0  0  0  0  0  0  0  0  0
    6.8447   -0.1949    5.9062 H   0  0  0  0  0  0  0  0  0  0  0  0
    9.7591   -1.0897    8.6248 H   0  0  0  0  0  0  0  0  0  0  0  0
   10.4711   -3.4283    9.1071 H   0  0  0  0  0  0  0  0  0  0  0  0
   10.2793   -5.8434    8.6624 H   0  0  0  0  0  0  0  0  0  0  0  0
    8.7367   -6.6602    6.9030 H   0  0  0  0  0  0  0  0  0  0  0  0
    7.4051   -5.1014    5.6012 H   0  0  0  0  0  0  0  0  0  0  0  0
    7.1218   -3.6611    2.2637 H   0  0  0  0  0  0  0  0  0  0  0  0
    6.6929   -2.4710    1.0660 H   0  0  0  0  0  0  0  0  0  0  0  0
    6.3926   -4.6610    0.1029 H   0  0  0  0  0  0  0  0  0  0  0  0
    4.7693   -4.0172    0.3150 H   0  0  0  0  0  0  0  0  0  0  0  0
    4.2505   -7.3099    2.9923 H   0  0  0  0  0  0  0  0  0  0  0  0
    3.0166   -7.0621    5.1219 H   0  0  0  0  0  0  0  0  0  0  0  0
    3.5825   -2.8079    4.9657 H   0  0  0  0  0  0  0  0  0  0  0  0
  1  2  1  0  0  0  0
  1 36  1  0  0  0  0
  1 37  1  0  0  0  0
  1 38  1  0  0  0  0
  2  3  1  0  0  0  0
  2  8  1  0  0  0  0
  2 39  1  0  0  0  0
  3  4  1  0  0  0  0
  3 40  1  0  0  0  0
  3 41  1  0  0  0  0
  4  5  1  0  0  0  0
  4  6  1  0  0  0  0
  5 42  1  0  0  0  0
  5 43  1  0  0  0  0
  5 44  1  0  0  0  0
  6  7  1  0  0  0  0
  6 45  1  0  0  0  0
  6 46  1  0  0  0  0
  7  8  1  0  0  0  0
  7 47  1  0  0  0  0
  7 48  1  0  0  0  0
  8  9  1  0  0  0  0
  9 10  2  0  0  0  0
  9 11  1  0  0  0  0
 11 12  1  0  0  0  0
 11 49  1  0  0  0  0
 11 50  1  0  0  0  0
 12 13  1  0  0  0  0
 12 26  1  0  0  0  0
 12 35  1  0  0  0  0
 13 14  2  0  0  0  0
 13 15  1  0  0  0  0
 15 16  1  0  0  0  0
 15 51  1  0  0  0  0
 16 17  1  0  0  0  0
 16 25  2  0  0  0  0
 17 18  2  0  0  0  0
 17 52  1  0  0  0  0
 18 19  1  0  0  0  0
 19 20  2  0  0  0  0
 19 53  1  0  0  0  0
 20 21  1  0  0  0  0
 20 25  1  0  0  0  0
 21 22  2  0  0  0  0
 21 54  1  0  0  0  0
 22 23  1  0  0  0  0
 22 55  1  0  0  0  0
 23 24  2  0  0  0  0
 23 56  1  0  0  0  0
 24 25  1  0  0  0  0
 24 57  1  0  0  0  0
 26 27  1  0  0  0  0
 26 58  1  0  0  0  0
 26 59  1  0  0  0  0
 27 28  1  0  0  0  0
 27 60  1  0  0  0  0
 27 61  1  0  0  0  0
 28 29  1  0  0  0  0
 29 30  1  0  0  0  0
 29 35  2  0  0  0  0
 30 31  2  0  0  0  0
 30 62  1  0  0  0  0
 31 32  1  0  0  0  0
 31 63  1  0  0  0  0
 32 33  1  0  0  0  0
 32 34  2  0  0  0  0
 34 35  1  0  0  0  0
 34 64  1  0  0  0  0
M  END
$$$$
