
 OpenBabel07202414123D

 66 69  0  0  1  0  0  0  0  0999 V2000
    3.5674    1.2403    0.1815 C   0  0  0  0  0  0  0  0  0  0  0  0
    2.4302    0.1908    0.1255 C   0  0  0  0  0  0  0  0  0  0  0  0
    1.1075    0.8883    0.4935 C   0  0  0  0  0  0  0  0  0  0  0  0
    2.3452   -0.2686   -1.3503 C   0  0  0  0  0  0  0  0  0  0  0  0
    2.6720   -0.9848    1.0912 C   0  0  0  0  0  0  0  0  0  0  0  0
    3.4662   -0.8562    2.2343 C   0  0  0  0  0  0  0  0  0  0  0  0
    3.7710   -1.9543    3.0680 C   0  0  0  0  0  0  0  0  0  0  0  0
    3.2798   -3.2438    2.8331 C   0  0  0  0  0  0  0  0  0  0  0  0
    3.7003   -4.4286    3.6161 N   0  0  0  0  0  0  0  0  0  0  0  0
    3.4347   -5.7735    3.0047 C   0  0  3  0  0  0  0  0  0  0  0  0
    4.7422   -6.5414    2.5898 C   0  0  0  0  0  0  0  0  0  0  0  0
    5.6948   -6.7716    3.3352 O   0  0  0  0  0  0  0  0  0  0  0  0
    4.8061   -6.9057    1.2494 N   0  0  0  0  0  0  0  0  0  0  0  0
    5.9084   -7.6976    0.7139 C   0  0  0  0  0  0  0  0  0  0  0  0
    6.0934   -7.4477   -0.7835 C   0  0  0  0  0  0  0  0  0  0  0  0
    7.2194   -8.2379   -1.3937 C   0  0  0  0  0  0  0  0  0  0  0  0
    8.5191   -7.7100   -1.4437 C   0  0  0  0  0  0  0  0  0  0  0  0
    9.5612   -8.4259   -2.0413 C   0  0  0  0  0  0  0  0  0  0  0  0
    9.3134   -9.6826   -2.5900 C   0  0  0  0  0  0  0  0  0  0  0  0
    8.0343  -10.2129   -2.5329 C   0  0  0  0  0  0  0  0  0  0  0  0
    7.7932  -11.4197   -3.0656 F   0  0  0  0  0  0  0  0  0  0  0  0
    6.9866   -9.5102   -1.9391 C   0  0  0  0  0  0  0  0  0  0  0  0
    2.2944   -6.5901    3.6174 C   0  0  0  0  0  0  0  0  0  0  0  0
    1.5059   -6.1337    4.6875 C   0  0  0  0  0  0  0  0  0  0  0  0
    0.4367   -6.8923    5.1584 C   0  0  0  0  0  0  0  0  0  0  0  0
    0.1330   -8.0681    4.5011 C   0  0  0  0  0  0  0  0  0  0  0  0
    0.8454   -8.5437    3.4587 N   0  0  0  0  0  0  0  0  0  0  0  0
    1.9165   -7.8126    3.0628 C   0  0  0  0  0  0  0  0  0  0  0  0
    4.4291   -4.2943    4.8490 C   0  0  0  0  0  0  0  0  0  0  0  0
    4.7464   -3.2025    5.3229 O   0  0  0  0  0  0  0  0  0  0  0  0
    4.8583   -5.4741    5.6353 C   0  0  0  0  0  0  0  0  0  0  0  0
    6.0261   -5.5554    6.4499 C   0  0  0  0  0  0  0  0  0  0  0  0
    6.0197   -6.8310    6.9466 C   0  0  0  0  0  0  0  0  0  0  0  0
    4.9006   -7.4650    6.5326 O   0  0  0  0  0  0  0  0  0  0  0  0
    4.1561   -6.6106    5.7544 N   0  0  0  0  0  0  0  0  0  0  0  0
    2.3638   -3.3256    1.7644 C   0  0  0  0  0  0  0  0  0  0  0  0
    2.0860   -2.2389    0.9037 C   0  0  0  0  0  0  0  0  0  0  0  0
    3.4357    2.0143   -0.5843 H   0  0  0  0  0  0  0  0  0  0  0  0
    4.5457    0.7740    0.0133 H   0  0  0  0  0  0  0  0  0  0  0  0
    3.6002    1.7608    1.1449 H   0  0  0  0  0  0  0  0  0  0  0  0
    0.9130    1.7402   -0.1699 H   0  0  0  0  0  0  0  0  0  0  0  0
    1.1275    1.2680    1.5213 H   0  0  0  0  0  0  0  0  0  0  0  0
    0.2550    0.2048    0.4092 H   0  0  0  0  0  0  0  0  0  0  0  0
    2.2175    0.5901   -2.0221 H   0  0  0  0  0  0  0  0  0  0  0  0
    1.4947   -0.9328   -1.5350 H   0  0  0  0  0  0  0  0  0  0  0  0
    3.2572   -0.7936   -1.6566 H   0  0  0  0  0  0  0  0  0  0  0  0
    3.8984    0.1023    2.5120 H   0  0  0  0  0  0  0  0  0  0  0  0
    4.4435   -1.7200    3.8842 H   0  0  0  0  0  0  0  0  0  0  0  0
    3.0177   -5.5784    2.0176 H   0  0  0  0  0  0  0  0  0  0  0  0
    4.1026   -6.5730    0.6019 H   0  0  0  0  0  0  0  0  0  0  0  0
    5.6671   -8.7502    0.9053 H   0  0  0  0  0  0  0  0  0  0  0  0
    6.8280   -7.4688    1.2652 H   0  0  0  0  0  0  0  0  0  0  0  0
    6.2666   -6.3779   -0.9585 H   0  0  0  0  0  0  0  0  0  0  0  0
    5.1614   -7.6792   -1.3155 H   0  0  0  0  0  0  0  0  0  0  0  0
    8.7279   -6.7265   -1.0257 H   0  0  0  0  0  0  0  0  0  0  0  0
   10.5599   -7.9999   -2.0855 H   0  0  0  0  0  0  0  0  0  0  0  0
   10.1098  -10.2476   -3.0657 H   0  0  0  0  0  0  0  0  0  0  0  0
    6.0006   -9.9581   -1.9234 H   0  0  0  0  0  0  0  0  0  0  0  0
    1.7391   -5.2066    5.2052 H   0  0  0  0  0  0  0  0  0  0  0  0
   -0.1403   -6.5695    6.0181 H   0  0  0  0  0  0  0  0  0  0  0  0
   -0.7166   -8.6735    4.8040 H   0  0  0  0  0  0  0  0  0  0  0  0
    2.4628   -8.2622    2.2384 H   0  0  0  0  0  0  0  0  0  0  0  0
    6.7739   -4.7938    6.6057 H   0  0  0  0  0  0  0  0  0  0  0  0
    6.6815   -7.4129    7.5691 H   0  0  0  0  0  0  0  0  0  0  0  0
    1.7906   -4.2236    1.5538 H   0  0  0  0  0  0  0  0  0  0  0  0
    1.3906   -2.4088    0.0844 H   0  0  0  0  0  0  0  0  0  0  0  0
  1  2  1  0  0  0  0
  1 38  1  0  0  0  0
  1 39  1  0  0  0  0
  1 40  1  0  0  0  0
  2  3  1  0  0  0  0
  2  4  1  0  0  0  0
  2  5  1  0  0  0  0
  3 41  1  0  0  0  0
  3 42  1  0  0  0  0
  3 43  1  0  0  0  0
  4 44  1  0  0  0  0
  4 45  1  0  0  0  0
  4 46  1  0  0  0  0
  5  6  1  0  0  0  0
  5 37  2  0  0  0  0
  6  7  2  0  0  0  0
  6 47  1  0  0  0  0
  7  8  1  0  0  0  0
  7 48  1  0  0  0  0
  8  9  1  0  0  0  0
  8 36  2  0  0  0  0
  9 10  1  0  0  0  0
  9 29  1  0  0  0  0
 10 11  1  0  0  0  0
 10 23  1  0  0  0  0
 10 49  1  0  0  0  0
 11 12  2  0  0  0  0
 11 13  1  0  0  0  0
 13 14  1  0  0  0  0
 13 50  1  0  0  0  0
 14 15  1  0  0  0  0
 14 51  1  0  0  0  0
 14 52  1  0  0  0  0
 15 16  1  0  0  0  0
 15 53  1  0  0  0  0
 15 54  1  0  0  0  0
 16 17  1  0  0  0  0
 16 22  2  0  0  0  0
 17 18  2  0  0  0  0
 17 55  1  0  0  0  0
 18 19  1  0  0  0  0
 18 56  1  0  0  0  0
 19 20  2  0  0  0  0
 19 57  1  0  0  0  0
 20 21  1  0  0  0  0
 20 22  1  0  0  0  0
 22 58  1  0  0  0  0
 23 24  1  0  0  0  0
 23 28  2  0  0  0  0
 24 25  2  0  0  0  0
 24 59  1  0  0  0  0
 25 26  1  0  0  0  0
 25 60  1  0  0  0  0
 26 27  2  0  0  0  0
 26 61  1  0  0  0  0
 27 28  1  0  0  0  0
 28 62  1  0  0  0  0
 29 30  2  0  0  0  0
 29 31  1  0  0  0  0
 31 32  1  0  0  0  0
 31 35  2  0  0  0  0
 32 33  2  0  0  0  0
 32 63  1  0  0  0  0
 33 34  1  0  0  0  0
 33 64  1  0  0  0  0
 34 35  1  0  0  0  0
 36 37  1  0  0  0  0
 36 65  1  0  0  0  0
 37 66  1  0  0  0  0
M  END
$$$$
