
 OpenBabel07202414143D

 43 46  0  0  1  0  0  0  0  0999 V2000
    2.2575    1.0335    0.4232 C   0  0  0  0  0  0  0  0  0  0  0  0
    1.8157   -0.3316    0.5622 O   0  0  0  0  0  0  0  0  0  0  0  0
    2.8823   -1.2955    0.7447 C   0  0  3  0  0  0  0  0  0  0  0  0
    3.6412   -0.9500    2.0865 C   0  0  0  0  0  0  0  0  0  0  0  0
    4.8495   -1.0952    2.2011 O   0  0  0  0  0  0  0  0  0  0  0  0
    2.7833   -0.4617    3.0714 N   0  0  0  0  0  0  0  0  0  0  0  0
    3.1374    0.0938    4.3271 C   0  0  0  0  0  0  0  0  0  0  0  0
    4.4283   -0.0025    4.8388 C   0  0  0  0  0  0  0  0  0  0  0  0
    4.8720    0.6770    5.9201 N   0  0  0  0  0  0  0  0  0  0  0  0
    3.9838    1.4681    6.5472 C   0  0  0  0  0  0  0  0  0  0  0  0
    2.6382    1.5674    6.2079 C   0  0  0  0  0  0  0  0  0  0  0  0
    1.7602    2.3638    6.9687 C   0  0  0  0  0  0  0  0  0  0  0  0
    0.4082    2.4176    6.6594 C   0  0  0  0  0  0  0  0  0  0  0  0
   -0.0674    1.6954    5.5754 C   0  0  0  0  0  0  0  0  0  0  0  0
   -1.3741    1.7290    5.2820 F   0  0  0  0  0  0  0  0  0  0  0  0
    0.7913    0.9259    4.7898 C   0  0  0  0  0  0  0  0  0  0  0  0
    2.1796    0.8405    5.0787 C   0  0  0  0  0  0  0  0  0  0  0  0
    3.8434   -1.2849   -0.4707 C   0  0  0  0  0  0  0  0  0  0  0  0
    3.2040   -2.0743   -1.6002 C   0  0  0  0  0  0  0  0  0  0  0  0
    3.2426   -3.4590   -1.2635 O   0  0  0  0  0  0  0  0  0  0  0  0
    2.6528   -3.7221   -0.0556 C   0  0  0  0  0  0  0  0  0  0  0  0
    2.4374   -5.0784    0.2070 C   0  0  0  0  0  0  0  0  0  0  0  0
    1.8188   -5.4703    1.3894 C   0  0  0  0  0  0  0  0  0  0  0  0
    1.3612   -4.4962    2.2682 C   0  0  0  0  0  0  0  0  0  0  0  0
    0.5717   -4.9661    3.7236 Cl  0  0  0  0  0  0  0  0  0  0  0  0
    1.5807   -3.1393    2.0118 C   0  0  0  0  0  0  0  0  0  0  0  0
    2.3144   -2.7288    0.8823 C   0  0  0  0  0  0  0  0  0  0  0  0
    1.3772    1.6817    0.4537 H   0  0  0  0  0  0  0  0  0  0  0  0
    2.7533    1.2040   -0.5349 H   0  0  0  0  0  0  0  0  0  0  0  0
    2.9246    1.3445    1.2306 H   0  0  0  0  0  0  0  0  0  0  0  0
    1.8385   -0.2885    2.7396 H   0  0  0  0  0  0  0  0  0  0  0  0
    5.1818   -0.6457    4.3962 H   0  0  0  0  0  0  0  0  0  0  0  0
    4.4016    2.0391    7.3738 H   0  0  0  0  0  0  0  0  0  0  0  0
    2.1272    2.9303    7.8237 H   0  0  0  0  0  0  0  0  0  0  0  0
   -0.2805    3.0156    7.2530 H   0  0  0  0  0  0  0  0  0  0  0  0
    0.3379    0.3705    3.9748 H   0  0  0  0  0  0  0  0  0  0  0  0
    4.7982   -1.7604   -0.2133 H   0  0  0  0  0  0  0  0  0  0  0  0
    4.0821   -0.2811   -0.8263 H   0  0  0  0  0  0  0  0  0  0  0  0
    3.7730   -1.9512   -2.5275 H   0  0  0  0  0  0  0  0  0  0  0  0
    2.1710   -1.7674   -1.8143 H   0  0  0  0  0  0  0  0  0  0  0  0
    2.7782   -5.8283   -0.5030 H   0  0  0  0  0  0  0  0  0  0  0  0
    1.6948   -6.5261    1.6123 H   0  0  0  0  0  0  0  0  0  0  0  0
    1.2174   -2.4207    2.7370 H   0  0  0  0  0  0  0  0  0  0  0  0
  1  2  1  0  0  0  0
  1 28  1  0  0  0  0
  1 29  1  0  0  0  0
  1 30  1  0  0  0  0
  2  3  1  0  0  0  0
  3  4  1  0  0  0  0
  3 18  1  0  0  0  0
  3 27  1  0  0  0  0
  4  5  2  0  0  0  0
  4  6  1  0  0  0  0
  6  7  1  0  0  0  0
  6 31  1  0  0  0  0
  7  8  1  0  0  0  0
  7 17  2  0  0  0  0
  8  9  2  0  0  0  0
  8 32  1  0  0  0  0
  9 10  1  0  0  0  0
 10 11  2  0  0  0  0
 10 33  1  0  0  0  0
 11 12  1  0  0  0  0
 11 17  1  0  0  0  0
 12 13  2  0  0  0  0
 12 34  1  0  0  0  0
 13 14  1  0  0  0  0
 13 35  1  0  0  0  0
 14 15  1  0  0  0  0
 14 16  2  0  0  0  0
 16 17  1  0  0  0  0
 16 36  1  0  0  0  0
 18 19  1  0  0  0  0
 18 37  1  0  0  0  0
 18 38  1  0  0  0  0
 19 20  1  0  0  0  0
 19 39  1  0  0  0  0
 19 40  1  0  0  0  0
 20 21  1  0  0  0  0
 21 22  1  0  0  0  0
 21 27  2  0  0  0  0
 22 23  2  0  0  0  0
 22 41  1  0  0  0  0
 23 24  1  0  0  0  0
 23 42  1  0  0  0  0
 24 25  1  0  0  0  0
 24 26  2  0  0  0  0
 26 27  1  0  0  0  0
 26 43  1  0  0  0  0
M  END
$$$$
