
 OpenBabel07202414143D

 45 48  0  0  1  0  0  0  0  0999 V2000
    3.4251   -0.0313   -0.0745 C   0  0  0  0  0  0  0  0  0  0  0  0
    2.0156    0.2950    0.0235 N   0  0  0  0  0  0  0  0  0  0  0  0
    1.5744    1.5879   -0.4706 C   0  0  0  0  0  0  0  0  0  0  0  0
    0.2719    2.0310    0.1982 C   0  0  1  0  0  0  0  0  0  0  0  0
   -0.1261    3.3524   -0.4446 C   0  0  0  0  0  0  0  0  0  0  0  0
   -0.0701    4.4051    0.1906 O   0  0  0  0  0  0  0  0  0  0  0  0
   -0.5239    3.2622   -1.7710 N   0  0  0  0  0  0  0  0  0  0  0  0
   -0.9141    4.4096   -2.5066 C   0  0  0  0  0  0  0  0  0  0  0  0
   -0.0836    5.5271   -2.5623 C   0  0  0  0  0  0  0  0  0  0  0  0
   -0.3477    6.6295   -3.2921 N   0  0  0  0  0  0  0  0  0  0  0  0
   -1.5153    6.6281   -3.9808 C   0  0  0  0  0  0  0  0  0  0  0  0
   -2.4332    5.5779   -3.9823 C   0  0  0  0  0  0  0  0  0  0  0  0
   -3.6509    5.6597   -4.6824 C   0  0  0  0  0  0  0  0  0  0  0  0
   -4.5790    4.6208   -4.6239 C   0  0  0  0  0  0  0  0  0  0  0  0
   -4.3051    3.4915   -3.8648 C   0  0  0  0  0  0  0  0  0  0  0  0
   -3.0918    3.3891   -3.1792 C   0  0  0  0  0  0  0  0  0  0  0  0
   -2.1259    4.4225   -3.2279 C   0  0  0  0  0  0  0  0  0  0  0  0
   -0.7679    0.9295    0.1062 C   0  0  0  0  0  0  0  0  0  0  0  0
   -2.1476    1.2029    0.1703 C   0  0  0  0  0  0  0  0  0  0  0  0
   -3.0960    0.1776    0.0218 C   0  0  0  0  0  0  0  0  0  0  0  0
   -4.5788    0.4808    0.0231 C   0  0  0  0  0  0  0  0  0  0  0  0
   -4.8585    1.7999    0.2103 F   0  0  0  0  0  0  0  0  0  0  0  0
   -5.1681    0.1434   -1.1579 F   0  0  0  0  0  0  0  0  0  0  0  0
   -5.2552   -0.1918    0.9910 F   0  0  0  0  0  0  0  0  0  0  0  0
   -2.6508   -1.1413   -0.1523 C   0  0  0  0  0  0  0  0  0  0  0  0
   -1.2846   -1.4338   -0.1424 C   0  0  0  0  0  0  0  0  0  0  0  0
   -0.3444   -0.4082   -0.0000 C   0  0  0  0  0  0  0  0  0  0  0  0
    1.1098   -0.7638    0.0661 C   0  0  0  0  0  0  0  0  0  0  0  0
    1.4455   -1.9391    0.1576 O   0  0  0  0  0  0  0  0  0  0  0  0
    4.0314    0.8787   -0.0822 H   0  0  0  0  0  0  0  0  0  0  0  0
    3.6015   -0.6034   -0.9908 H   0  0  0  0  0  0  0  0  0  0  0  0
    3.7092   -0.6418    0.7878 H   0  0  0  0  0  0  0  0  0  0  0  0
    1.4646    1.4910   -1.5591 H   0  0  0  0  0  0  0  0  0  0  0  0
    2.3550    2.3342   -0.2804 H   0  0  0  0  0  0  0  0  0  0  0  0
    0.4515    2.2138    1.2657 H   0  0  0  0  0  0  0  0  0  0  0  0
   -0.9123    2.3754   -2.0689 H   0  0  0  0  0  0  0  0  0  0  0  0
    0.8648    5.5581   -2.0306 H   0  0  0  0  0  0  0  0  0  0  0  0
   -1.6980    7.5417   -4.5414 H   0  0  0  0  0  0  0  0  0  0  0  0
   -3.8924    6.5482   -5.2647 H   0  0  0  0  0  0  0  0  0  0  0  0
   -5.5231    4.7045   -5.1568 H   0  0  0  0  0  0  0  0  0  0  0  0
   -5.0386    2.6920   -3.7918 H   0  0  0  0  0  0  0  0  0  0  0  0
   -2.9421    2.5049   -2.5700 H   0  0  0  0  0  0  0  0  0  0  0  0
   -2.4941    2.2239    0.3368 H   0  0  0  0  0  0  0  0  0  0  0  0
   -3.3678   -1.9511   -0.2786 H   0  0  0  0  0  0  0  0  0  0  0  0
   -0.9560   -2.4671   -0.2447 H   0  0  0  0  0  0  0  0  0  0  0  0
  1  2  1  0  0  0  0
  1 30  1  0  0  0  0
  1 31  1  0  0  0  0
  1 32  1  0  0  0  0
  2  3  1  0  0  0  0
  2 28  1  0  0  0  0
  3  4  1  0  0  0  0
  3 33  1  0  0  0  0
  3 34  1  0  0  0  0
  4  5  1  0  0  0  0
  4 18  1  0  0  0  0
  4 35  1  1  0  0  0
  5  6  2  0  0  0  0
  5  7  1  0  0  0  0
  7  8  1  0  0  0  0
  7 36  1  0  0  0  0
  8  9  1  0  0  0  0
  8 17  2  0  0  0  0
  9 10  2  0  0  0  0
  9 37  1  0  0  0  0
 10 11  1  0  0  0  0
 11 12  2  0  0  0  0
 11 38  1  0  0  0  0
 12 13  1  0  0  0  0
 12 17  1  0  0  0  0
 13 14  2  0  0  0  0
 13 39  1  0  0  0  0
 14 15  1  0  0  0  0
 14 40  1  0  0  0  0
 15 16  2  0  0  0  0
 15 41  1  0  0  0  0
 16 17  1  0  0  0  0
 16 42  1  0  0  0  0
 18 19  1  0  0  0  0
 18 27  2  0  0  0  0
 19 20  2  0  0  0  0
 19 43  1  0  0  0  0
 20 21  1  0  0  0  0
 20 25  1  0  0  0  0
 21 22  1  0  0  0  0
 21 23  1  0  0  0  0
 21 24  1  0  0  0  0
 25 26  2  0  0  0  0
 25 44  1  0  0  0  0
 26 27  1  0  0  0  0
 26 45  1  0  0  0  0
 27 28  1  0  0  0  0
 28 29  2  0  0  0  0
M  END
$$$$
