
 OpenBabel07202414173D

 80 86  0  0  1  0  0  0  0  0999 V2000
    1.0510    0.2398   -0.0690 Cl  0  0  0  0  0  0  0  0  0  0  0  0
    2.7674    0.1621    0.0226 C   0  0  0  0  0  0  0  0  0  0  0  0
    3.5205    1.3249   -0.0491 C   0  0  0  0  0  0  0  0  0  0  0  0
    4.9112    1.2417   -0.0332 C   0  0  0  0  0  0  0  0  0  0  0  0
    5.5581   -0.0046    0.0729 C   0  0  0  0  0  0  0  0  0  0  0  0
    4.7923   -1.1959    0.1788 C   0  0  0  0  0  0  0  0  0  0  0  0
    3.3896   -1.0791    0.1447 C   0  0  0  0  0  0  0  0  0  0  0  0
    5.4787   -2.5938    0.2430 C   0  0  3  0  0  0  0  0  0  0  0  0
    6.9623   -2.4532   -0.1847 C   0  0  0  0  0  0  0  0  0  0  0  0
    7.6479   -1.3153    0.4778 N   0  0  0  0  0  0  0  0  0  0  0  0
    7.7802   -1.5218    2.1283 S   0  0  0  0  0  0  0  0  0  0  0  0
    8.4613   -0.3203    2.7016 O   0  0  0  0  0  0  0  0  0  0  0  0
    6.4642   -1.7888    2.5714 O   0  0  0  0  0  0  0  0  0  0  0  0
    8.8616   -2.9152    2.4298 C   0  0  0  0  0  0  0  0  0  0  0  0
   10.1866   -2.4878    1.8638 C   0  0  0  0  0  0  0  0  0  0  0  0
   10.1131   -2.2433    0.4321 C   0  0  0  0  0  0  0  0  0  0  0  0
   10.0122   -2.0576   -0.6804 N   0  0  0  0  0  0  0  0  0  0  0  0
   11.2893   -1.6898    2.5845 C   0  0  0  0  0  0  0  0  0  0  0  0
   11.4477   -3.1629    2.3663 C   0  0  0  0  0  0  0  0  0  0  0  0
    7.0721   -0.0254    0.0245 C   0  0  0  0  0  0  0  0  0  0  0  0
    4.8442   -3.4649   -0.8407 C   0  0  0  0  0  0  0  0  0  0  0  0
    3.9218   -4.4122   -0.1243 C   0  0  0  0  0  0  0  0  0  0  0  0
    3.9021   -4.1531    1.2622 N   0  0  0  0  0  0  0  0  0  0  0  0
    2.9324   -4.7305    2.1516 C   0  0  0  0  0  0  0  0  0  0  0  0
    2.8081   -4.3424    3.4869 C   0  0  0  0  0  0  0  0  0  0  0  0
    1.6383   -4.4023    4.1604 N   0  0  0  0  0  0  0  0  0  0  0  0
    0.5852   -4.8187    3.4354 C   0  0  0  0  0  0  0  0  0  0  0  0
    0.7097   -5.7159    2.3882 C   0  0  0  0  0  0  0  0  0  0  0  0
   -0.2714   -6.6844    2.0749 C   0  0  0  0  0  0  0  0  0  0  0  0
   -0.0678   -7.5976    1.0455 C   0  0  0  0  0  0  0  0  0  0  0  0
    1.0567   -7.5044    0.2468 C   0  0  0  0  0  0  0  0  0  0  0  0
    1.2309   -8.3659   -0.8314 O   0  0  0  0  0  0  0  0  0  0  0  0
   -0.0539   -8.8024   -1.3656 C   0  0  0  0  0  0  0  0  0  0  0  0
   -0.0836   -9.1814   -2.8661 C   0  0  0  0  0  0  0  0  0  0  0  0
   -1.4258   -9.5866   -3.3628 N   0  0  0  0  0  0  0  0  0  0  0  0
   -1.9899  -10.7893   -2.7326 C   0  0  0  0  0  0  0  0  0  0  0  0
   -1.2106  -12.0529   -3.0189 C   0  0  0  0  0  0  0  0  0  0  0  0
   -1.2544  -12.3862   -4.7629 S   0  0  0  0  0  0  0  0  0  0  0  0
   -0.1360  -13.2636   -5.0577 O   0  0  0  0  0  0  0  0  0  0  0  0
   -2.6044  -12.7868   -5.1014 O   0  0  0  0  0  0  0  0  0  0  0  0
   -0.9522  -10.8170   -5.5521 C   0  0  0  0  0  0  0  0  0  0  0  0
   -1.5932   -9.6454   -4.8261 C   0  0  0  0  0  0  0  0  0  0  0  0
    2.0291   -6.5590    0.5977 C   0  0  0  0  0  0  0  0  0  0  0  0
    1.9145   -5.6393    1.6833 C   0  0  0  0  0  0  0  0  0  0  0  0
    5.0730   -3.4761    1.5665 C   0  0  0  0  0  0  0  0  0  0  0  0
    5.6403   -3.7286    2.6110 O   0  0  0  0  0  0  0  0  0  0  0  0
    3.0343    2.2935   -0.1212 H   0  0  0  0  0  0  0  0  0  0  0  0
    5.4917    2.1612   -0.1003 H   0  0  0  0  0  0  0  0  0  0  0  0
    2.7555   -1.9590    0.1841 H   0  0  0  0  0  0  0  0  0  0  0  0
    7.0255   -2.2540   -1.2689 H   0  0  0  0  0  0  0  0  0  0  0  0
    7.5331   -3.3765   -0.0409 H   0  0  0  0  0  0  0  0  0  0  0  0
    8.4265   -3.7567    1.8853 H   0  0  0  0  0  0  0  0  0  0  0  0
    8.8597   -3.1366    3.5023 H   0  0  0  0  0  0  0  0  0  0  0  0
   11.2254   -1.3508    3.6114 H   0  0  0  0  0  0  0  0  0  0  0  0
   11.8861   -0.9961    1.9851 H   0  0  0  0  0  0  0  0  0  0  0  0
   11.4048   -3.7841    3.2538 H   0  0  0  0  0  0  0  0  0  0  0  0
   12.1858   -3.4884    1.6392 H   0  0  0  0  0  0  0  0  0  0  0  0
    7.3868    0.1598   -1.0152 H   0  0  0  0  0  0  0  0  0  0  0  0
    7.4811    0.8121    0.6044 H   0  0  0  0  0  0  0  0  0  0  0  0
    5.5841   -4.0480   -1.3998 H   0  0  0  0  0  0  0  0  0  0  0  0
    4.2902   -2.8967   -1.5938 H   0  0  0  0  0  0  0  0  0  0  0  0
    4.3821   -5.3952   -0.1811 H   0  0  0  0  0  0  0  0  0  0  0  0
    2.9295   -4.3539   -0.5618 H   0  0  0  0  0  0  0  0  0  0  0  0
    3.6098   -3.9060    4.0717 H   0  0  0  0  0  0  0  0  0  0  0  0
   -0.1224   -3.9902    3.2801 H   0  0  0  0  0  0  0  0  0  0  0  0
   -1.1540   -6.7976    2.6959 H   0  0  0  0  0  0  0  0  0  0  0  0
   -0.7694   -8.4048    0.8797 H   0  0  0  0  0  0  0  0  0  0  0  0
   -0.7443   -7.9586   -1.2699 H   0  0  0  0  0  0  0  0  0  0  0  0
   -0.3890   -9.6666   -0.7742 H   0  0  0  0  0  0  0  0  0  0  0  0
    0.6350   -9.9777   -3.0322 H   0  0  0  0  0  0  0  0  0  0  0  0
    0.2823   -8.3185   -3.4343 H   0  0  0  0  0  0  0  0  0  0  0  0
   -3.0248  -10.9165   -3.0795 H   0  0  0  0  0  0  0  0  0  0  0  0
   -2.0697  -10.6346   -1.6545 H   0  0  0  0  0  0  0  0  0  0  0  0
   -1.6560  -12.9203   -2.5184 H   0  0  0  0  0  0  0  0  0  0  0  0
   -0.1687  -11.9844   -2.6959 H   0  0  0  0  0  0  0  0  0  0  0  0
   -1.3433  -10.8866   -6.5752 H   0  0  0  0  0  0  0  0  0  0  0  0
    0.1229  -10.6795   -5.6403 H   0  0  0  0  0  0  0  0  0  0  0  0
   -2.6733   -9.6706   -5.0418 H   0  0  0  0  0  0  0  0  0  0  0  0
   -1.2520   -8.7022   -5.2759 H   0  0  0  0  0  0  0  0  0  0  0  0
    2.9796   -6.6026    0.0953 H   0  0  0  0  0  0  0  0  0  0  0  0
  1  2  1  0  0  0  0
  2  3  1  0  0  0  0
  2  7  2  0  0  0  0
  3  4  2  0  0  0  0
  3 47  1  0  0  0  0
  4  5  1  0  0  0  0
  4 48  1  0  0  0  0
  5  6  2  0  0  0  0
  5 20  1  0  0  0  0
  6  7  1  0  0  0  0
  6  8  1  0  0  0  0
  7 49  1  0  0  0  0
  8  9  1  0  0  0  0
  8 21  1  0  0  0  0
  8 45  1  0  0  0  0
  9 10  1  0  0  0  0
  9 50  1  0  0  0  0
  9 51  1  0  0  0  0
 10 11  1  0  0  0  0
 10 20  1  0  0  0  0
 11 12  2  0  0  0  0
 11 13  2  0  0  0  0
 11 14  1  0  0  0  0
 14 15  1  0  0  0  0
 14 52  1  0  0  0  0
 14 53  1  0  0  0  0
 15 16  1  0  0  0  0
 15 18  1  0  0  0  0
 15 19  1  0  0  0  0
 16 17  3  0  0  0  0
 18 19  1  0  0  0  0
 18 54  1  0  0  0  0
 18 55  1  0  0  0  0
 19 56  1  0  0  0  0
 19 57  1  0  0  0  0
 20 58  1  0  0  0  0
 20 59  1  0  0  0  0
 21 22  1  0  0  0  0
 21 60  1  0  0  0  0
 21 61  1  0  0  0  0
 22 23  1  0  0  0  0
 22 62  1  0  0  0  0
 22 63  1  0  0  0  0
 23 24  1  0  0  0  0
 23 45  1  0  0  0  0
 24 25  1  0  0  0  0
 24 44  2  0  0  0  0
 25 26  2  0  0  0  0
 25 64  1  0  0  0  0
 26 27  1  0  0  0  0
 27 28  2  0  0  0  0
 27 65  1  0  0  0  0
 28 29  1  0  0  0  0
 28 44  1  0  0  0  0
 29 30  2  0  0  0  0
 29 66  1  0  0  0  0
 30 31  1  0  0  0  0
 30 67  1  0  0  0  0
 31 32  1  0  0  0  0
 31 43  2  0  0  0  0
 32 33  1  0  0  0  0
 33 34  1  0  0  0  0
 33 68  1  0  0  0  0
 33 69  1  0  0  0  0
 34 35  1  0  0  0  0
 34 70  1  0  0  0  0
 34 71  1  0  0  0  0
 35 36  1  0  0  0  0
 35 42  1  0  0  0  0
 36 37  1  0  0  0  0
 36 72  1  0  0  0  0
 36 73  1  0  0  0  0
 37 38  1  0  0  0  0
 37 74  1  0  0  0  0
 37 75  1  0  0  0  0
 38 39  2  0  0  0  0
 38 40  2  0  0  0  0
 38 41  1  0  0  0  0
 41 42  1  0  0  0  0
 41 76  1  0  0  0  0
 41 77  1  0  0  0  0
 42 78  1  0  0  0  0
 42 79  1  0  0  0  0
 43 44  1  0  0  0  0
 43 80  1  0  0  0  0
 45 46  2  0  0  0  0
M  END
$$$$
