
 OpenBabel07202414133D

 52 55  0  0  0  0  0  0  0  0999 V2000
    0.9865   -0.1792    0.2678 C   0  0  0  0  0  0  0  0  0  0  0  0
    1.7952   -0.0474   -0.9427 N   0  0  0  0  0  0  0  0  0  0  0  0
    2.0468    1.3161   -1.3963 C   0  0  0  0  0  0  0  0  0  0  0  0
    2.6778   -1.0789   -1.2791 C   0  0  0  0  0  0  0  0  0  0  0  0
    2.4364   -2.4114   -0.9016 C   0  0  0  0  0  0  0  0  0  0  0  0
    3.2823   -3.4749   -1.2781 C   0  0  0  0  0  0  0  0  0  0  0  0
    4.4270   -3.2233   -2.0300 C   0  0  0  0  0  0  0  0  0  0  0  0
    5.2519   -4.2939   -2.4747 N   0  0  0  0  0  0  0  0  0  0  0  0
    6.4914   -4.6119   -1.7476 C   0  0  0  0  0  0  0  0  0  0  0  0
    6.7528   -3.8770   -0.4593 C   0  0  0  0  0  0  0  0  0  0  0  0
    7.6167   -2.7724   -0.4418 C   0  0  0  0  0  0  0  0  0  0  0  0
    7.8093   -2.0441    0.7312 C   0  0  0  0  0  0  0  0  0  0  0  0
    7.1413   -2.4176    1.8977 C   0  0  0  0  0  0  0  0  0  0  0  0
    6.3043   -3.5291    1.8944 C   0  0  0  0  0  0  0  0  0  0  0  0
    5.4824   -3.9911    3.3326 Cl  0  0  0  0  0  0  0  0  0  0  0  0
    6.1164   -4.2706    0.7266 C   0  0  0  0  0  0  0  0  0  0  0  0
    4.8775   -4.9542   -3.6521 C   0  0  0  0  0  0  0  0  0  0  0  0
    3.7932   -4.7769   -4.2129 O   0  0  0  0  0  0  0  0  0  0  0  0
    5.8966   -5.8433   -4.3146 C   0  0  0  0  0  0  0  0  0  0  0  0
    5.7804   -7.2454   -3.9693 N   0  0  0  0  0  0  0  0  0  0  0  0
    6.7737   -7.7884   -3.2276 N   0  0  0  0  0  0  0  0  0  0  0  0
    7.0124   -9.0006   -3.7105 N   0  0  0  0  0  0  0  0  0  0  0  0
    6.0884   -9.2575   -4.6867 C   0  0  0  0  0  0  0  0  0  0  0  0
    5.9611  -10.3371   -5.5704 C   0  0  0  0  0  0  0  0  0  0  0  0
    4.8816  -10.3424   -6.4634 C   0  0  0  0  0  0  0  0  0  0  0  0
    3.9380   -9.3104   -6.4555 C   0  0  0  0  0  0  0  0  0  0  0  0
    4.0775   -8.2009   -5.6130 C   0  0  0  0  0  0  0  0  0  0  0  0
    5.1899   -8.2005   -4.7667 C   0  0  0  0  0  0  0  0  0  0  0  0
    4.7045   -1.9139   -2.4113 C   0  0  0  0  0  0  0  0  0  0  0  0
    3.8365   -0.8660   -2.0488 C   0  0  0  0  0  0  0  0  0  0  0  0
    0.4224    0.7360    0.4790 H   0  0  0  0  0  0  0  0  0  0  0  0
    1.6175   -0.3797    1.1442 H   0  0  0  0  0  0  0  0  0  0  0  0
    0.2438   -0.9758    0.1626 H   0  0  0  0  0  0  0  0  0  0  0  0
    1.2354    1.9933   -1.1000 H   0  0  0  0  0  0  0  0  0  0  0  0
    2.0924    1.3641   -2.4908 H   0  0  0  0  0  0  0  0  0  0  0  0
    2.9755    1.7169   -0.9725 H   0  0  0  0  0  0  0  0  0  0  0  0
    1.5492   -2.6711   -0.3326 H   0  0  0  0  0  0  0  0  0  0  0  0
    3.0288   -4.4850   -0.9799 H   0  0  0  0  0  0  0  0  0  0  0  0
    7.3354   -4.4395   -2.4246 H   0  0  0  0  0  0  0  0  0  0  0  0
    6.4825   -5.6877   -1.5370 H   0  0  0  0  0  0  0  0  0  0  0  0
    8.1361   -2.4644   -1.3477 H   0  0  0  0  0  0  0  0  0  0  0  0
    8.4683   -1.1813    0.7331 H   0  0  0  0  0  0  0  0  0  0  0  0
    7.2736   -1.8327    2.8052 H   0  0  0  0  0  0  0  0  0  0  0  0
    5.4593   -5.1366    0.7328 H   0  0  0  0  0  0  0  0  0  0  0  0
    6.9241   -5.5247   -4.1249 H   0  0  0  0  0  0  0  0  0  0  0  0
    5.7711   -5.7572   -5.4011 H   0  0  0  0  0  0  0  0  0  0  0  0
    6.6977  -11.1327   -5.5738 H   0  0  0  0  0  0  0  0  0  0  0  0
    4.7768  -11.1629   -7.1700 H   0  0  0  0  0  0  0  0  0  0  0  0
    3.0905   -9.3573   -7.1373 H   0  0  0  0  0  0  0  0  0  0  0  0
    3.3635   -7.3825   -5.6291 H   0  0  0  0  0  0  0  0  0  0  0  0
    5.5790   -1.6870   -3.0173 H   0  0  0  0  0  0  0  0  0  0  0  0
    4.0961    0.1292   -2.3974 H   0  0  0  0  0  0  0  0  0  0  0  0
  1  2  1  0  0  0  0
  1 31  1  0  0  0  0
  1 32  1  0  0  0  0
  1 33  1  0  0  0  0
  2  3  1  0  0  0  0
  2  4  1  0  0  0  0
  3 34  1  0  0  0  0
  3 35  1  0  0  0  0
  3 36  1  0  0  0  0
  4  5  1  0  0  0  0
  4 30  2  0  0  0  0
  5  6  2  0  0  0  0
  5 37  1  0  0  0  0
  6  7  1  0  0  0  0
  6 38  1  0  0  0  0
  7  8  1  0  0  0  0
  7 29  2  0  0  0  0
  8  9  1  0  0  0  0
  8 17  1  0  0  0  0
  9 10  1  0  0  0  0
  9 39  1  0  0  0  0
  9 40  1  0  0  0  0
 10 11  1  0  0  0  0
 10 16  2  0  0  0  0
 11 12  2  0  0  0  0
 11 41  1  0  0  0  0
 12 13  1  0  0  0  0
 12 42  1  0  0  0  0
 13 14  2  0  0  0  0
 13 43  1  0  0  0  0
 14 15  1  0  0  0  0
 14 16  1  0  0  0  0
 16 44  1  0  0  0  0
 17 18  2  0  0  0  0
 17 19  1  0  0  0  0
 19 20  1  0  0  0  0
 19 45  1  0  0  0  0
 19 46  1  0  0  0  0
 20 21  1  0  0  0  0
 20 28  1  0  0  0  0
 21 22  2  0  0  0  0
 22 23  1  0  0  0  0
 23 24  1  0  0  0  0
 23 28  2  0  0  0  0
 24 25  2  0  0  0  0
 24 47  1  0  0  0  0
 25 26  1  0  0  0  0
 25 48  1  0  0  0  0
 26 27  2  0  0  0  0
 26 49  1  0  0  0  0
 27 28  1  0  0  0  0
 27 50  1  0  0  0  0
 29 30  1  0  0  0  0
 29 51  1  0  0  0  0
 30 52  1  0  0  0  0
M  END
$$$$
