
 OpenBabel07202414183D

 65 70  0  0  1  0  0  0  0  0999 V2000
    3.3939    4.1342   -6.4485 F   0  0  0  0  0  0  0  0  0  0  0  0
    4.1439    4.2305   -5.3189 C   0  0  0  0  0  0  0  0  0  0  0  0
    3.2574    4.2933   -4.2920 F   0  0  0  0  0  0  0  0  0  0  0  0
    5.0376    2.9849   -5.1989 C   0  0  0  0  0  0  0  0  0  0  0  0
    5.9766    2.9993   -4.0624 N   0  0  0  0  0  0  0  0  0  0  0  0
    6.8993    1.8143   -4.0697 C   0  0  0  0  0  0  0  0  0  0  0  0
    6.6916    1.1961   -2.6630 C   0  0  2  0  0  0  0  0  0  0  0  0
    5.1934    1.3945   -2.4962 C   0  0  0  0  0  0  0  0  0  0  0  0
    5.2967    2.8988   -2.7282 C   0  0  1  0  0  0  0  0  0  0  0  0
    6.3543    3.2996   -1.6540 C   0  0  0  0  0  0  0  0  0  0  0  0
    7.2147    2.1237   -1.6621 N   0  0  0  0  0  0  0  0  0  0  0  0
    8.4704    2.0152   -1.1391 C   0  0  0  0  0  0  0  0  0  0  0  0
    9.1641    1.0234   -1.3539 O   0  0  0  0  0  0  0  0  0  0  0  0
    8.9022    3.1526   -0.2258 C   0  0  0  0  0  0  0  0  0  0  0  0
   10.4443    3.3012   -0.1217 C   0  0  3  0  0  0  0  0  0  0  0  0
   10.9329    3.6535   -1.6102 C   0  0  0  0  0  0  0  0  0  0  0  0
   10.1370    3.9548   -2.5001 O   0  0  0  0  0  0  0  0  0  0  0  0
   12.2955    3.7782   -1.7854 N   0  0  0  0  0  0  0  0  0  0  0  0
   12.9302    4.4213   -2.8921 C   0  0  0  0  0  0  0  0  0  0  0  0
   12.8027    3.9971   -4.2133 C   0  0  0  0  0  0  0  0  0  0  0  0
   13.7924    4.1786   -5.1261 N   0  0  0  0  0  0  0  0  0  0  0  0
   14.8330    4.9464   -4.7415 C   0  0  0  0  0  0  0  0  0  0  0  0
   14.8299    5.7717   -3.6163 C   0  0  0  0  0  0  0  0  0  0  0  0
   15.6824    6.8709   -3.4327 C   0  0  0  0  0  0  0  0  0  0  0  0
   15.6340    7.6139   -2.2516 C   0  0  0  0  0  0  0  0  0  0  0  0
   14.7902    7.2114   -1.2224 C   0  0  0  0  0  0  0  0  0  0  0  0
   13.9395    6.1252   -1.4077 C   0  0  0  0  0  0  0  0  0  0  0  0
   13.8946    5.4162   -2.6217 C   0  0  0  0  0  0  0  0  0  0  0  0
   11.0963    2.0547    0.5373 C   0  0  0  0  0  0  0  0  0  0  0  0
   10.5848    1.9043    1.9725 C   0  0  0  0  0  0  0  0  0  0  0  0
   11.0670    2.9653    2.7910 O   0  0  0  0  0  0  0  0  0  0  0  0
   10.9604    4.2128    2.2389 C   0  0  0  0  0  0  0  0  0  0  0  0
   11.1521    5.2547    3.1545 C   0  0  0  0  0  0  0  0  0  0  0  0
   11.0720    6.5773    2.7340 C   0  0  0  0  0  0  0  0  0  0  0  0
   10.7981    6.8491    1.3974 C   0  0  0  0  0  0  0  0  0  0  0  0
   10.6860    8.4840    0.8736 Cl  0  0  0  0  0  0  0  0  0  0  0  0
   10.6067    5.8119    0.4752 C   0  0  0  0  0  0  0  0  0  0  0  0
   10.7002    4.4669    0.8742 C   0  0  0  0  0  0  0  0  0  0  0  0
    4.7200    5.1596   -5.3530 H   0  0  0  0  0  0  0  0  0  0  0  0
    5.6175    2.9217   -6.1285 H   0  0  0  0  0  0  0  0  0  0  0  0
    4.3991    2.0945   -5.1715 H   0  0  0  0  0  0  0  0  0  0  0  0
    7.9340    2.1432   -4.2282 H   0  0  0  0  0  0  0  0  0  0  0  0
    6.6330    1.0887   -4.8471 H   0  0  0  0  0  0  0  0  0  0  0  0
    7.0690    0.1760   -2.5532 H   0  0  0  0  0  0  0  0  0  0  0  0
    4.8436    1.1523   -1.4870 H   0  0  0  0  0  0  0  0  0  0  0  0
    4.5880    0.8589   -3.2332 H   0  0  0  0  0  0  0  0  0  0  0  0
    4.3834    3.4751   -2.6209 H   0  0  0  0  0  0  0  0  0  0  0  0
    5.9133    3.4100   -0.6618 H   0  0  0  0  0  0  0  0  0  0  0  0
    6.8957    4.2034   -1.9384 H   0  0  0  0  0  0  0  0  0  0  0  0
    8.4131    3.0084    0.7442 H   0  0  0  0  0  0  0  0  0  0  0  0
    8.4990    4.0969   -0.6034 H   0  0  0  0  0  0  0  0  0  0  0  0
   12.8522    3.7586   -0.9428 H   0  0  0  0  0  0  0  0  0  0  0  0
   11.9692    3.4034   -4.5748 H   0  0  0  0  0  0  0  0  0  0  0  0
   15.7652    4.7765   -5.2838 H   0  0  0  0  0  0  0  0  0  0  0  0
   16.3262    7.2138   -4.2446 H   0  0  0  0  0  0  0  0  0  0  0  0
   16.2407    8.5066   -2.1323 H   0  0  0  0  0  0  0  0  0  0  0  0
   14.7592    7.7608   -0.2847 H   0  0  0  0  0  0  0  0  0  0  0  0
   13.2543    5.8765   -0.6016 H   0  0  0  0  0  0  0  0  0  0  0  0
   12.1867    2.1693    0.5741 H   0  0  0  0  0  0  0  0  0  0  0  0
   10.9159    1.1259   -0.0037 H   0  0  0  0  0  0  0  0  0  0  0  0
   10.9399    0.9681    2.4167 H   0  0  0  0  0  0  0  0  0  0  0  0
    9.4922    1.8676    2.0544 H   0  0  0  0  0  0  0  0  0  0  0  0
   11.3460    5.0303    4.2022 H   0  0  0  0  0  0  0  0  0  0  0  0
   11.2112    7.3821    3.4520 H   0  0  0  0  0  0  0  0  0  0  0  0
   10.3762    6.0681   -0.5573 H   0  0  0  0  0  0  0  0  0  0  0  0
  1  2  1  0  0  0  0
  2  3  1  0  0  0  0
  2  4  1  0  0  0  0
  2 39  1  0  0  0  0
  4  5  1  0  0  0  0
  4 40  1  0  0  0  0
  4 41  1  0  0  0  0
  5  6  1  0  0  0  0
  5  9  1  0  0  0  0
  6  7  1  0  0  0  0
  6 42  1  0  0  0  0
  6 43  1  0  0  0  0
  7  8  1  0  0  0  0
  7 11  1  0  0  0  0
  7 44  1  1  0  0  0
  8  9  1  0  0  0  0
  8 45  1  0  0  0  0
  8 46  1  0  0  0  0
  9 10  1  0  0  0  0
  9 47  1  1  0  0  0
 10 11  1  0  0  0  0
 10 48  1  0  0  0  0
 10 49  1  0  0  0  0
 11 12  1  0  0  0  0
 12 13  2  0  0  0  0
 12 14  1  0  0  0  0
 14 15  1  0  0  0  0
 14 50  1  0  0  0  0
 14 51  1  0  0  0  0
 15 16  1  0  0  0  0
 15 29  1  0  0  0  0
 15 38  1  0  0  0  0
 16 17  2  0  0  0  0
 16 18  1  0  0  0  0
 18 19  1  0  0  0  0
 18 52  1  0  0  0  0
 19 20  1  0  0  0  0
 19 28  2  0  0  0  0
 20 21  2  0  0  0  0
 20 53  1  0  0  0  0
 21 22  1  0  0  0  0
 22 23  2  0  0  0  0
 22 54  1  0  0  0  0
 23 24  1  0  0  0  0
 23 28  1  0  0  0  0
 24 25  2  0  0  0  0
 24 55  1  0  0  0  0
 25 26  1  0  0  0  0
 25 56  1  0  0  0  0
 26 27  2  0  0  0  0
 26 57  1  0  0  0  0
 27 28  1  0  0  0  0
 27 58  1  0  0  0  0
 29 30  1  0  0  0  0
 29 59  1  0  0  0  0
 29 60  1  0  0  0  0
 30 31  1  0  0  0  0
 30 61  1  0  0  0  0
 30 62  1  0  0  0  0
 31 32  1  0  0  0  0
 32 33  1  0  0  0  0
 32 38  2  0  0  0  0
 33 34  2  0  0  0  0
 33 63  1  0  0  0  0
 34 35  1  0  0  0  0
 34 64  1  0  0  0  0
 35 36  1  0  0  0  0
 35 37  2  0  0  0  0
 37 38  1  0  0  0  0
 37 65  1  0  0  0  0
M  END
$$$$
