
 OpenBabel07202414123D

 56 59  0  0  0  0  0  0  0  0999 V2000
    5.1589    0.6802   -1.8558 C   0  0  0  0  0  0  0  0  0  0  0  0
    5.7323   -0.2697   -0.8105 C   0  0  0  0  0  0  0  0  0  0  0  0
    5.9235   -1.6584   -1.4355 C   0  0  0  0  0  0  0  0  0  0  0  0
    7.3691    0.2606   -0.1514 S   0  0  0  0  0  0  0  0  0  0  0  0
    7.1866    1.9652    0.3979 C   0  0  0  0  0  0  0  0  0  0  0  0
    6.1087    2.5106    1.1272 C   0  0  0  0  0  0  0  0  0  0  0  0
    5.0003    1.7348    1.5035 N   0  0  0  0  0  0  0  0  0  0  0  0
    3.6310    2.0398    1.5464 C   0  0  0  0  0  0  0  0  0  0  0  0
    2.8340    1.3715    2.4857 C   0  0  0  0  0  0  0  0  0  0  0  0
    1.4446    1.4927    2.4933 C   0  0  0  0  0  0  0  0  0  0  0  0
    0.5522    0.7097    3.4384 C   0  0  0  0  0  0  0  0  0  0  0  0
    1.2276   -0.2990    4.3606 C   0  0  0  0  0  0  0  0  0  0  0  0
    2.1148   -1.0589    3.9898 O   0  0  0  0  0  0  0  0  0  0  0  0
    0.6765   -0.3184    5.6316 N   0  0  0  0  0  0  0  0  0  0  0  0
    1.1011   -1.2848    6.5780 C   0  0  0  0  0  0  0  0  0  0  0  0
    0.1571   -2.2094    7.0237 C   0  0  0  0  0  0  0  0  0  0  0  0
    0.4129   -3.1937    7.9051 N   0  0  0  0  0  0  0  0  0  0  0  0
    1.6403   -3.1794    8.4654 C   0  0  0  0  0  0  0  0  0  0  0  0
    2.6115   -2.2078    8.2199 C   0  0  0  0  0  0  0  0  0  0  0  0
    3.7576   -2.1101    9.0279 C   0  0  0  0  0  0  0  0  0  0  0  0
    4.7204   -1.1349    8.7831 C   0  0  0  0  0  0  0  0  0  0  0  0
    4.5892   -0.3062    7.6767 C   0  0  0  0  0  0  0  0  0  0  0  0
    3.4381   -0.3758    6.8835 C   0  0  0  0  0  0  0  0  0  0  0  0
    2.3858   -1.2804    7.1806 C   0  0  0  0  0  0  0  0  0  0  0  0
    0.8481    2.3731    1.5823 C   0  0  0  0  0  0  0  0  0  0  0  0
    1.6391    3.1022    0.6960 C   0  0  0  0  0  0  0  0  0  0  0  0
    0.8843    4.1607   -0.4414 Cl  0  0  0  0  0  0  0  0  0  0  0  0
    3.0262    2.9595    0.6875 C   0  0  0  0  0  0  0  0  0  0  0  0
    6.1740    3.8528    1.5462 C   0  0  0  0  0  0  0  0  0  0  0  0
    7.3025    4.6335    1.3039 C   0  0  0  0  0  0  0  0  0  0  0  0
    8.3719    4.0944    0.6022 C   0  0  0  0  0  0  0  0  0  0  0  0
    8.3097    2.7762    0.1470 C   0  0  0  0  0  0  0  0  0  0  0  0
    4.3027    0.2177   -2.3616 H   0  0  0  0  0  0  0  0  0  0  0  0
    5.8937    0.9400   -2.6246 H   0  0  0  0  0  0  0  0  0  0  0  0
    4.7947    1.6049   -1.4032 H   0  0  0  0  0  0  0  0  0  0  0  0
    5.0347   -0.3841    0.0228 H   0  0  0  0  0  0  0  0  0  0  0  0
    6.5288   -1.6157   -2.3490 H   0  0  0  0  0  0  0  0  0  0  0  0
    4.9520   -2.0865   -1.7098 H   0  0  0  0  0  0  0  0  0  0  0  0
    6.3973   -2.3613   -0.7408 H   0  0  0  0  0  0  0  0  0  0  0  0
    5.2661    0.8450    1.9165 H   0  0  0  0  0  0  0  0  0  0  0  0
    3.3419    0.7244    3.1961 H   0  0  0  0  0  0  0  0  0  0  0  0
   -0.1730    0.1431    2.8416 H   0  0  0  0  0  0  0  0  0  0  0  0
   -0.0132    1.4314    4.0481 H   0  0  0  0  0  0  0  0  0  0  0  0
   -0.3157   -0.1139    5.6370 H   0  0  0  0  0  0  0  0  0  0  0  0
   -0.8625   -2.2006    6.6511 H   0  0  0  0  0  0  0  0  0  0  0  0
    1.8278   -3.9944    9.1577 H   0  0  0  0  0  0  0  0  0  0  0  0
    3.8698   -2.7548    9.8977 H   0  0  0  0  0  0  0  0  0  0  0  0
    5.5667   -1.0232    9.4560 H   0  0  0  0  0  0  0  0  0  0  0  0
    5.3694    0.4133    7.4420 H   0  0  0  0  0  0  0  0  0  0  0  0
    3.3619    0.2979    6.0342 H   0  0  0  0  0  0  0  0  0  0  0  0
   -0.2355    2.4828    1.5465 H   0  0  0  0  0  0  0  0  0  0  0  0
    3.6226    3.5112   -0.0325 H   0  0  0  0  0  0  0  0  0  0  0  0
    5.3621    4.2766    2.1335 H   0  0  0  0  0  0  0  0  0  0  0  0
    7.3539    5.6488    1.6877 H   0  0  0  0  0  0  0  0  0  0  0  0
    9.2641    4.6895    0.4241 H   0  0  0  0  0  0  0  0  0  0  0  0
    9.1670    2.3741   -0.3905 H   0  0  0  0  0  0  0  0  0  0  0  0
  1  2  1  0  0  0  0
  1 33  1  0  0  0  0
  1 34  1  0  0  0  0
  1 35  1  0  0  0  0
  2  3  1  0  0  0  0
  2  4  1  0  0  0  0
  2 36  1  0  0  0  0
  3 37  1  0  0  0  0
  3 38  1  0  0  0  0
  3 39  1  0  0  0  0
  4  5  1  0  0  0  0
  5  6  2  0  0  0  0
  5 32  1  0  0  0  0
  6  7  1  0  0  0  0
  6 29  1  0  0  0  0
  7  8  1  0  0  0  0
  7 40  1  0  0  0  0
  8  9  2  0  0  0  0
  8 28  1  0  0  0  0
  9 10  1  0  0  0  0
  9 41  1  0  0  0  0
 10 11  1  0  0  0  0
 10 25  2  0  0  0  0
 11 12  1  0  0  0  0
 11 42  1  0  0  0  0
 11 43  1  0  0  0  0
 12 13  2  0  0  0  0
 12 14  1  0  0  0  0
 14 15  1  0  0  0  0
 14 44  1  0  0  0  0
 15 16  2  0  0  0  0
 15 24  1  0  0  0  0
 16 17  1  0  0  0  0
 16 45  1  0  0  0  0
 17 18  2  0  0  0  0
 18 19  1  0  0  0  0
 18 46  1  0  0  0  0
 19 20  2  0  0  0  0
 19 24  1  0  0  0  0
 20 21  1  0  0  0  0
 20 47  1  0  0  0  0
 21 22  2  0  0  0  0
 21 48  1  0  0  0  0
 22 23  1  0  0  0  0
 22 49  1  0  0  0  0
 23 24  2  0  0  0  0
 23 50  1  0  0  0  0
 25 26  1  0  0  0  0
 25 51  1  0  0  0  0
 26 27  1  0  0  0  0
 26 28  2  0  0  0  0
 28 52  1  0  0  0  0
 29 30  2  0  0  0  0
 29 53  1  0  0  0  0
 30 31  1  0  0  0  0
 30 54  1  0  0  0  0
 31 32  2  0  0  0  0
 31 55  1  0  0  0  0
 32 56  1  0  0  0  0
M  END
$$$$
