
 OpenBabel07202414143D

 53 57  0  0  1  0  0  0  0  0999 V2000
    8.2088   -0.6445    0.3060 C   0  0  0  0  0  0  0  0  0  0  0  0
    7.1339    0.2440    0.6571 N   0  0  0  0  0  0  0  0  0  0  0  0
    5.8323   -0.1976    0.6835 C   0  0  0  0  0  0  0  0  0  0  0  0
    5.5101   -1.3502    0.3924 O   0  0  0  0  0  0  0  0  0  0  0  0
    4.7847    0.8766    0.9500 C   0  0  0  0  0  0  0  0  0  0  0  0
    5.1705    1.9411    1.8711 N   0  0  0  0  0  0  0  0  0  0  0  0
    5.1297    1.7113    3.3026 C   0  0  0  0  0  0  0  0  0  0  0  0
    4.2691    2.7792    3.9917 C   0  0  1  0  0  0  0  0  0  0  0  0
    2.7845    2.5950    3.6380 C   0  0  0  0  0  0  0  0  0  0  0  0
    2.0565    2.8772    4.9329 C   0  0  0  0  0  0  0  0  0  0  0  0
    2.9887    2.4811    5.9899 N   0  0  0  0  0  0  0  0  0  0  0  0
    2.4875    1.4165    6.8198 C   0  0  0  0  0  0  0  0  0  0  0  0
    2.7385    0.1125    6.3894 C   0  0  0  0  0  0  0  0  0  0  0  0
    1.7695   -0.8183    6.2780 N   0  0  0  0  0  0  0  0  0  0  0  0
    0.5356   -0.4686    6.7109 C   0  0  0  0  0  0  0  0  0  0  0  0
    0.2464    0.7174    7.3914 C   0  0  0  0  0  0  0  0  0  0  0  0
   -1.0242    1.0042    7.9208 C   0  0  0  0  0  0  0  0  0  0  0  0
   -1.2412    2.1816    8.6434 C   0  0  0  0  0  0  0  0  0  0  0  0
   -0.1973    3.0847    8.8229 C   0  0  0  0  0  0  0  0  0  0  0  0
   -0.4516    4.5074    9.7537 Cl  0  0  0  0  0  0  0  0  0  0  0  0
    1.0469    2.8462    8.2421 C   0  0  0  0  0  0  0  0  0  0  0  0
    1.2805    1.6624    7.5114 C   0  0  0  0  0  0  0  0  0  0  0  0
    4.2993    2.4544    5.4876 C   0  0  0  0  0  0  0  0  0  0  0  0
    5.2993    2.1278    6.1130 O   0  0  0  0  0  0  0  0  0  0  0  0
    4.7289    4.1721    3.5577 C   0  0  0  0  0  0  0  0  0  0  0  0
    4.3530    5.3343    4.2561 C   0  0  0  0  0  0  0  0  0  0  0  0
    4.6294    6.5985    3.7286 C   0  0  0  0  0  0  0  0  0  0  0  0
    4.0277    8.0021    4.5212 Cl  0  0  0  0  0  0  0  0  0  0  0  0
    5.3279    6.7343    2.5300 C   0  0  0  0  0  0  0  0  0  0  0  0
    5.7303    5.6045    1.8312 C   0  0  0  0  0  0  0  0  0  0  0  0
    5.3949    4.3278    2.3145 C   0  0  0  0  0  0  0  0  0  0  0  0
    5.6133    3.1621    1.4012 C   0  0  0  0  0  0  0  0  0  0  0  0
    6.0658    3.3091    0.2731 O   0  0  0  0  0  0  0  0  0  0  0  0
    9.1120   -0.0574    0.1325 H   0  0  0  0  0  0  0  0  0  0  0  0
    7.9496   -1.2098   -0.5942 H   0  0  0  0  0  0  0  0  0  0  0  0
    8.3684   -1.3416    1.1335 H   0  0  0  0  0  0  0  0  0  0  0  0
    7.2874    1.2494    0.6568 H   0  0  0  0  0  0  0  0  0  0  0  0
    3.8867    0.3965    1.3572 H   0  0  0  0  0  0  0  0  0  0  0  0
    4.5167    1.3215   -0.0159 H   0  0  0  0  0  0  0  0  0  0  0  0
    6.1668    1.7588    3.6622 H   0  0  0  0  0  0  0  0  0  0  0  0
    4.7669    0.6979    3.5152 H   0  0  0  0  0  0  0  0  0  0  0  0
    2.5852    1.5577    3.3370 H   0  0  0  0  0  0  0  0  0  0  0  0
    2.4262    3.2407    2.8324 H   0  0  0  0  0  0  0  0  0  0  0  0
    1.1194    2.3091    4.9534 H   0  0  0  0  0  0  0  0  0  0  0  0
    1.8186    3.9337    5.0668 H   0  0  0  0  0  0  0  0  0  0  0  0
    3.6954   -0.1765    5.9643 H   0  0  0  0  0  0  0  0  0  0  0  0
   -0.2436   -1.1908    6.4815 H   0  0  0  0  0  0  0  0  0  0  0  0
   -1.8487    0.3110    7.7816 H   0  0  0  0  0  0  0  0  0  0  0  0
   -2.2202    2.3800    9.0673 H   0  0  0  0  0  0  0  0  0  0  0  0
    1.8546    3.5607    8.3898 H   0  0  0  0  0  0  0  0  0  0  0  0
    3.7924    5.2716    5.1864 H   0  0  0  0  0  0  0  0  0  0  0  0
    5.5253    7.7171    2.1136 H   0  0  0  0  0  0  0  0  0  0  0  0
    6.2314    5.7087    0.8724 H   0  0  0  0  0  0  0  0  0  0  0  0
  1  2  1  0  0  0  0
  1 34  1  0  0  0  0
  1 35  1  0  0  0  0
  1 36  1  0  0  0  0
  2  3  1  0  0  0  0
  2 37  1  0  0  0  0
  3  4  2  0  0  0  0
  3  5  1  0  0  0  0
  5  6  1  0  0  0  0
  5 38  1  0  0  0  0
  5 39  1  0  0  0  0
  6  7  1  0  0  0  0
  6 32  1  0  0  0  0
  7  8  1  0  0  0  0
  7 40  1  0  0  0  0
  7 41  1  0  0  0  0
  8  9  1  0  0  0  0
  8 23  1  1  0  0  0
  8 25  1  0  0  0  0
  9 10  1  0  0  0  0
  9 42  1  0  0  0  0
  9 43  1  0  0  0  0
 10 11  1  0  0  0  0
 10 44  1  0  0  0  0
 10 45  1  0  0  0  0
 11 12  1  0  0  0  0
 11 23  1  0  0  0  0
 12 13  2  0  0  0  0
 12 22  1  0  0  0  0
 13 14  1  0  0  0  0
 13 46  1  0  0  0  0
 14 15  2  0  0  0  0
 15 16  1  0  0  0  0
 15 47  1  0  0  0  0
 16 17  2  0  0  0  0
 16 22  1  0  0  0  0
 17 18  1  0  0  0  0
 17 48  1  0  0  0  0
 18 19  2  0  0  0  0
 18 49  1  0  0  0  0
 19 20  1  0  0  0  0
 19 21  1  0  0  0  0
 21 22  2  0  0  0  0
 21 50  1  0  0  0  0
 23 24  2  0  0  0  0
 25 26  2  0  0  0  0
 25 31  1  0  0  0  0
 26 27  1  0  0  0  0
 26 51  1  0  0  0  0
 27 28  1  0  0  0  0
 27 29  2  0  0  0  0
 29 30  1  0  0  0  0
 29 52  1  0  0  0  0
 30 31  2  0  0  0  0
 30 53  1  0  0  0  0
 31 32  1  0  0  0  0
 32 33  2  0  0  0  0
M  END
$$$$
