
 OpenBabel07202414113D

 44 47  0  0  1  0  0  0  0  0999 V2000
    1.0960    0.0782    0.0564 C   0  0  0  0  0  0  0  0  0  0  0  0
    2.2939    0.0311    0.0532 C   0  0  0  0  0  0  0  0  0  0  0  0
    3.7248   -0.0165    0.0625 C   0  0  0  0  0  0  0  0  0  0  0  0
    4.4580    1.1538   -0.1429 C   0  0  0  0  0  0  0  0  0  0  0  0
    5.8523    1.1214   -0.1035 C   0  0  0  0  0  0  0  0  0  0  0  0
    6.5177   -0.0847    0.1421 C   0  0  0  0  0  0  0  0  0  0  0  0
    5.7855   -1.2724    0.3459 C   0  0  0  0  0  0  0  0  0  0  0  0
    4.3823   -1.2277    0.3003 C   0  0  0  0  0  0  0  0  0  0  0  0
    6.4940   -2.5786    0.6593 C   0  0  2  0  0  0  0  0  0  0  0  0
    6.4567   -2.9630    2.1416 C   0  0  0  0  0  0  0  0  0  0  0  0
    6.0083   -4.0546    2.4820 O   0  0  0  0  0  0  0  0  0  0  0  0
    6.9712   -2.0040    2.9943 N   0  0  0  0  0  0  0  0  0  0  0  0
    6.9742   -2.0199    4.4095 C   0  0  0  0  0  0  0  0  0  0  0  0
    6.6836   -3.1676    5.1459 C   0  0  0  0  0  0  0  0  0  0  0  0
    6.5093   -3.1918    6.4861 N   0  0  0  0  0  0  0  0  0  0  0  0
    6.6700   -2.0191    7.1318 C   0  0  0  0  0  0  0  0  0  0  0  0
    7.0839   -0.8315    6.5297 C   0  0  0  0  0  0  0  0  0  0  0  0
    7.3385    0.3200    7.2981 C   0  0  0  0  0  0  0  0  0  0  0  0
    7.7701    1.4981    6.6952 C   0  0  0  0  0  0  0  0  0  0  0  0
    7.9217    1.5488    5.3177 C   0  0  0  0  0  0  0  0  0  0  0  0
    7.6573    0.4148    4.5427 C   0  0  0  0  0  0  0  0  0  0  0  0
    7.2453   -0.8160    5.1247 C   0  0  0  0  0  0  0  0  0  0  0  0
    7.9374   -2.5272    0.1698 C   0  0  0  0  0  0  0  0  0  0  0  0
    8.6001   -1.2897    0.5706 N   0  0  0  0  0  0  0  0  0  0  0  0
    9.8557   -1.3424    1.2980 C   0  0  0  0  0  0  0  0  0  0  0  0
    7.9959   -0.0577    0.3600 C   0  0  0  0  0  0  0  0  0  0  0  0
    8.5785    1.0111    0.4967 O   0  0  0  0  0  0  0  0  0  0  0  0
    0.0312    0.1237    0.0652 H   0  0  0  0  0  0  0  0  0  0  0  0
    3.9492    2.1013   -0.3099 H   0  0  0  0  0  0  0  0  0  0  0  0
    6.4145    2.0451   -0.2303 H   0  0  0  0  0  0  0  0  0  0  0  0
    3.7991   -2.1302    0.4733 H   0  0  0  0  0  0  0  0  0  0  0  0
    5.9855   -3.3837    0.1109 H   0  0  0  0  0  0  0  0  0  0  0  0
    7.2348   -1.1303    2.5645 H   0  0  0  0  0  0  0  0  0  0  0  0
    6.5894   -4.1442    4.6824 H   0  0  0  0  0  0  0  0  0  0  0  0
    6.4533   -2.0657    8.1960 H   0  0  0  0  0  0  0  0  0  0  0  0
    7.2225    0.2964    8.3792 H   0  0  0  0  0  0  0  0  0  0  0  0
    7.9924    2.3737    7.3007 H   0  0  0  0  0  0  0  0  0  0  0  0
    8.2527    2.4664    4.8366 H   0  0  0  0  0  0  0  0  0  0  0  0
    7.8054    0.5203    3.4718 H   0  0  0  0  0  0  0  0  0  0  0  0
    7.9501   -2.5397   -0.9286 H   0  0  0  0  0  0  0  0  0  0  0  0
    8.5092   -3.3951    0.5153 H   0  0  0  0  0  0  0  0  0  0  0  0
   10.2401   -2.3633    1.3513 H   0  0  0  0  0  0  0  0  0  0  0  0
    9.6686   -0.9783    2.3142 H   0  0  0  0  0  0  0  0  0  0  0  0
   10.5890   -0.6844    0.8267 H   0  0  0  0  0  0  0  0  0  0  0  0
  1  2  3  0  0  0  0
  1 28  1  0  0  0  0
  2  3  1  0  0  0  0
  3  4  1  0  0  0  0
  3  8  2  0  0  0  0
  4  5  2  0  0  0  0
  4 29  1  0  0  0  0
  5  6  1  0  0  0  0
  5 30  1  0  0  0  0
  6  7  2  0  0  0  0
  6 26  1  0  0  0  0
  7  8  1  0  0  0  0
  7  9  1  0  0  0  0
  8 31  1  0  0  0  0
  9 10  1  0  0  0  0
  9 23  1  0  0  0  0
  9 32  1  6  0  0  0
 10 11  2  0  0  0  0
 10 12  1  0  0  0  0
 12 13  1  0  0  0  0
 12 33  1  0  0  0  0
 13 14  1  0  0  0  0
 13 22  2  0  0  0  0
 14 15  2  0  0  0  0
 14 34  1  0  0  0  0
 15 16  1  0  0  0  0
 16 17  2  0  0  0  0
 16 35  1  0  0  0  0
 17 18  1  0  0  0  0
 17 22  1  0  0  0  0
 18 19  2  0  0  0  0
 18 36  1  0  0  0  0
 19 20  1  0  0  0  0
 19 37  1  0  0  0  0
 20 21  2  0  0  0  0
 20 38  1  0  0  0  0
 21 22  1  0  0  0  0
 21 39  1  0  0  0  0
 23 24  1  0  0  0  0
 23 40  1  0  0  0  0
 23 41  1  0  0  0  0
 24 25  1  0  0  0  0
 24 26  1  0  0  0  0
 25 42  1  0  0  0  0
 25 43  1  0  0  0  0
 25 44  1  0  0  0  0
 26 27  2  0  0  0  0
M  END
$$$$
