
 OpenBabel07202414133D

 59 63  0  0  0  0  0  0  0  0999 V2000
    6.1091   -5.6121   -1.8814 C   0  0  0  0  0  0  0  0  0  0  0  0
    6.2968   -4.1888   -1.4513 C   0  0  0  0  0  0  0  0  0  0  0  0
    5.2198   -3.4347   -0.9651 C   0  0  0  0  0  0  0  0  0  0  0  0
    5.4174   -2.1108   -0.5112 C   0  0  0  0  0  0  0  0  0  0  0  0
    6.7003   -1.5551   -0.5855 C   0  0  0  0  0  0  0  0  0  0  0  0
    7.7904   -2.3170   -1.0551 C   0  0  0  0  0  0  0  0  0  0  0  0
    7.5673   -3.6220   -1.4982 C   0  0  0  0  0  0  0  0  0  0  0  0
    6.6201   -0.2586   -0.0720 N   0  0  0  0  0  0  0  0  0  0  0  0
    7.6517    0.7205   -0.0018 C   0  0  0  0  0  0  0  0  0  0  0  0
    7.6878    1.6349    1.0518 C   0  0  0  0  0  0  0  0  0  0  0  0
    8.7035    2.6014    1.1485 C   0  0  0  0  0  0  0  0  0  0  0  0
    8.8620    3.5296    2.3422 C   0  0  0  0  0  0  0  0  0  0  0  0
    7.6080    3.9310    3.1120 C   0  0  0  0  0  0  0  0  0  0  0  0
    6.8810    3.1297    3.6701 O   0  0  0  0  0  0  0  0  0  0  0  0
    7.4745    5.3162    3.1843 N   0  0  0  0  0  0  0  0  0  0  0  0
    6.2911    5.9985    3.5832 C   0  0  0  0  0  0  0  0  0  0  0  0
    5.1174    5.4881    3.0521 C   0  0  0  0  0  0  0  0  0  0  0  0
    4.4068    6.2071    2.1643 N   0  0  0  0  0  0  0  0  0  0  0  0
    4.7238    7.5135    2.0729 C   0  0  0  0  0  0  0  0  0  0  0  0
    5.5045    8.1920    2.9960 C   0  0  0  0  0  0  0  0  0  0  0  0
    5.4543    9.5868    3.1628 C   0  0  0  0  0  0  0  0  0  0  0  0
    6.2919   10.2177    4.0779 C   0  0  0  0  0  0  0  0  0  0  0  0
    7.2418    9.4695    4.7667 C   0  0  0  0  0  0  0  0  0  0  0  0
    7.3046    8.0762    4.5890 C   0  0  0  0  0  0  0  0  0  0  0  0
    6.3803    7.4076    3.7476 C   0  0  0  0  0  0  0  0  0  0  0  0
    9.7107    2.6119    0.1790 C   0  0  0  0  0  0  0  0  0  0  0  0
    9.6735    1.7062   -0.8811 C   0  0  0  0  0  0  0  0  0  0  0  0
   10.9216    1.7100   -2.0725 Cl  0  0  0  0  0  0  0  0  0  0  0  0
    8.6600    0.7573   -0.9775 C   0  0  0  0  0  0  0  0  0  0  0  0
    5.3314   -0.0461    0.3781 C   0  0  0  0  0  0  0  0  0  0  0  0
    4.5439   -1.1403    0.0688 C   0  0  0  0  0  0  0  0  0  0  0  0
    3.0786   -1.2648    0.3247 C   0  0  0  0  0  0  0  0  0  0  0  0
    2.2457   -0.7542   -0.8611 C   0  0  0  0  0  0  0  0  0  0  0  0
    0.8134   -0.9124   -0.6114 N   0  0  0  0  0  0  0  0  0  0  0  0
    5.0660   -5.9274   -1.7812 H   0  0  0  0  0  0  0  0  0  0  0  0
    6.7218   -6.2713   -1.2575 H   0  0  0  0  0  0  0  0  0  0  0  0
    6.4026   -5.7311   -2.9289 H   0  0  0  0  0  0  0  0  0  0  0  0
    4.2283   -3.8757   -0.9065 H   0  0  0  0  0  0  0  0  0  0  0  0
    8.8054   -1.9328   -1.0619 H   0  0  0  0  0  0  0  0  0  0  0  0
    8.4122   -4.2028   -1.8639 H   0  0  0  0  0  0  0  0  0  0  0  0
    6.9415    1.5663    1.8475 H   0  0  0  0  0  0  0  0  0  0  0  0
    9.3833    4.4310    2.0040 H   0  0  0  0  0  0  0  0  0  0  0  0
    9.5262    3.0455    3.0646 H   0  0  0  0  0  0  0  0  0  0  0  0
    7.9276    5.8317    2.4350 H   0  0  0  0  0  0  0  0  0  0  0  0
    4.8411    4.4407    3.1308 H   0  0  0  0  0  0  0  0  0  0  0  0
    4.4180    7.9967    1.1488 H   0  0  0  0  0  0  0  0  0  0  0  0
    4.7035   10.1700    2.6323 H   0  0  0  0  0  0  0  0  0  0  0  0
    6.1992   11.2873    4.2518 H   0  0  0  0  0  0  0  0  0  0  0  0
    7.9183    9.9676    5.4572 H   0  0  0  0  0  0  0  0  0  0  0  0
    8.0322    7.5111    5.1708 H   0  0  0  0  0  0  0  0  0  0  0  0
   10.5391    3.3194    0.2312 H   0  0  0  0  0  0  0  0  0  0  0  0
    8.6418    0.0944   -1.8360 H   0  0  0  0  0  0  0  0  0  0  0  0
    5.0503    0.8967    0.8245 H   0  0  0  0  0  0  0  0  0  0  0  0
    2.8174   -0.6991    1.2272 H   0  0  0  0  0  0  0  0  0  0  0  0
    2.8339   -2.3104    0.5294 H   0  0  0  0  0  0  0  0  0  0  0  0
    2.5142   -1.2962   -1.7750 H   0  0  0  0  0  0  0  0  0  0  0  0
    2.4605    0.3042   -1.0397 H   0  0  0  0  0  0  0  0  0  0  0  0
    0.5910   -1.9022   -0.5256 H   0  0  0  0  0  0  0  0  0  0  0  0
    0.2957   -0.5691   -1.4177 H   0  0  0  0  0  0  0  0  0  0  0  0
  1  2  1  0  0  0  0
  1 35  1  0  0  0  0
  1 36  1  0  0  0  0
  1 37  1  0  0  0  0
  2  3  2  0  0  0  0
  2  7  1  0  0  0  0
  3  4  1  0  0  0  0
  3 38  1  0  0  0  0
  4  5  2  0  0  0  0
  4 31  1  0  0  0  0
  5  6  1  0  0  0  0
  5  8  1  0  0  0  0
  6  7  2  0  0  0  0
  6 39  1  0  0  0  0
  7 40  1  0  0  0  0
  8  9  1  0  0  0  0
  8 30  1  0  0  0  0
  9 10  2  0  0  0  0
  9 29  1  0  0  0  0
 10 11  1  0  0  0  0
 10 41  1  0  0  0  0
 11 12  1  0  0  0  0
 11 26  2  0  0  0  0
 12 13  1  0  0  0  0
 12 42  1  0  0  0  0
 12 43  1  0  0  0  0
 13 14  2  0  0  0  0
 13 15  1  0  0  0  0
 15 16  1  0  0  0  0
 15 44  1  0  0  0  0
 16 17  2  0  0  0  0
 16 25  1  0  0  0  0
 17 18  1  0  0  0  0
 17 45  1  0  0  0  0
 18 19  2  0  0  0  0
 19 20  1  0  0  0  0
 19 46  1  0  0  0  0
 20 21  2  0  0  0  0
 20 25  1  0  0  0  0
 21 22  1  0  0  0  0
 21 47  1  0  0  0  0
 22 23  2  0  0  0  0
 22 48  1  0  0  0  0
 23 24  1  0  0  0  0
 23 49  1  0  0  0  0
 24 25  2  0  0  0  0
 24 50  1  0  0  0  0
 26 27  1  0  0  0  0
 26 51  1  0  0  0  0
 27 28  1  0  0  0  0
 27 29  2  0  0  0  0
 29 52  1  0  0  0  0
 30 31  2  0  0  0  0
 30 53  1  0  0  0  0
 31 32  1  0  0  0  0
 32 33  1  0  0  0  0
 32 54  1  0  0  0  0
 32 55  1  0  0  0  0
 33 34  1  0  0  0  0
 33 56  1  0  0  0  0
 33 57  1  0  0  0  0
 34 58  1  0  0  0  0
 34 59  1  0  0  0  0
M  END
$$$$
