
 OpenBabel07202414173D

 52 56  0  0  1  0  0  0  0  0999 V2000
    1.0083   -0.0289    0.0490 Cl  0  0  0  0  0  0  0  0  0  0  0  0
    2.7228   -0.0755    0.1699 C   0  0  0  0  0  0  0  0  0  0  0  0
    3.4542    1.0983    0.0172 C   0  0  0  0  0  0  0  0  0  0  0  0
    4.8456    1.0533    0.0698 C   0  0  0  0  0  0  0  0  0  0  0  0
    5.5171   -0.1633    0.2804 C   0  0  0  0  0  0  0  0  0  0  0  0
    4.7761   -1.3435    0.4658 C   0  0  0  0  0  0  0  0  0  0  0  0
    3.3729   -1.2888    0.4038 C   0  0  0  0  0  0  0  0  0  0  0  0
    5.4852   -2.6592    0.7398 C   0  0  3  0  0  0  0  0  0  0  0  0
    5.4070   -3.0781    2.2136 C   0  0  0  0  0  0  0  0  0  0  0  0
    4.9008   -4.1463    2.5322 O   0  0  0  0  0  0  0  0  0  0  0  0
    5.9736   -2.1681    3.0861 N   0  0  0  0  0  0  0  0  0  0  0  0
    5.9118   -2.1587    4.5023 C   0  0  0  0  0  0  0  0  0  0  0  0
    5.2374   -3.1328    5.2391 C   0  0  0  0  0  0  0  0  0  0  0  0
    4.9993   -3.0573    6.5694 N   0  0  0  0  0  0  0  0  0  0  0  0
    5.5092   -1.9904    7.2146 C   0  0  0  0  0  0  0  0  0  0  0  0
    6.3220   -1.0268    6.6213 C   0  0  0  0  0  0  0  0  0  0  0  0
    6.9435   -0.0286    7.3947 C   0  0  0  0  0  0  0  0  0  0  0  0
    7.7762    0.9155    6.8003 C   0  0  0  0  0  0  0  0  0  0  0  0
    7.9618    0.8985    5.4255 C   0  0  0  0  0  0  0  0  0  0  0  0
    7.3388   -0.0819    4.6470 C   0  0  0  0  0  0  0  0  0  0  0  0
    6.5213   -1.0897    5.2227 C   0  0  0  0  0  0  0  0  0  0  0  0
    6.9395   -2.6518    0.2442 C   0  0  0  0  0  0  0  0  0  0  0  0
    7.6846   -1.4235    0.7012 N   0  0  0  0  0  0  0  0  0  0  0  0
    9.3671   -1.4145    0.2088 S   0  0  0  0  0  0  0  0  0  0  0  0
    9.4036   -2.0572   -1.0843 O   0  0  0  0  0  0  0  0  0  0  0  0
    9.7800   -0.0296    0.3312 O   0  0  0  0  0  0  0  0  0  0  0  0
   10.2987   -2.3859    1.3709 C   0  0  0  0  0  0  0  0  0  0  0  0
   10.3507   -1.8449    2.8067 C   0  0  0  0  0  0  0  0  0  0  0  0
   11.8134   -2.0729    2.8177 N   0  0  0  0  0  0  0  0  0  0  0  0
   11.8092   -2.0857    1.3432 C   0  0  0  0  0  0  0  0  0  0  0  0
    7.0249   -0.1686    0.2081 C   0  0  0  0  0  0  0  0  0  0  0  0
    2.9507    2.0450   -0.1594 H   0  0  0  0  0  0  0  0  0  0  0  0
    5.4097    1.9748   -0.0738 H   0  0  0  0  0  0  0  0  0  0  0  0
    2.7822   -2.1960    0.5250 H   0  0  0  0  0  0  0  0  0  0  0  0
    4.9592   -3.4410    0.1723 H   0  0  0  0  0  0  0  0  0  0  0  0
    6.3774   -1.3499    2.6479 H   0  0  0  0  0  0  0  0  0  0  0  0
    4.8373   -4.0340    4.7865 H   0  0  0  0  0  0  0  0  0  0  0  0
    5.2437   -1.9359    8.2673 H   0  0  0  0  0  0  0  0  0  0  0  0
    6.8092   -0.0039    8.4746 H   0  0  0  0  0  0  0  0  0  0  0  0
    8.2851    1.6573    7.4107 H   0  0  0  0  0  0  0  0  0  0  0  0
    8.6050    1.6372    4.9533 H   0  0  0  0  0  0  0  0  0  0  0  0
    7.5418   -0.0557    3.5814 H   0  0  0  0  0  0  0  0  0  0  0  0
    6.9272   -2.6701   -0.8541 H   0  0  0  0  0  0  0  0  0  0  0  0
    7.4616   -3.5465    0.5989 H   0  0  0  0  0  0  0  0  0  0  0  0
   10.0674   -3.4530    1.3100 H   0  0  0  0  0  0  0  0  0  0  0  0
    9.8003   -2.4342    3.5457 H   0  0  0  0  0  0  0  0  0  0  0  0
   10.0799   -0.7918    2.9323 H   0  0  0  0  0  0  0  0  0  0  0  0
   12.1015   -2.9555    3.2402 H   0  0  0  0  0  0  0  0  0  0  0  0
   12.4387   -2.8545    0.8880 H   0  0  0  0  0  0  0  0  0  0  0  0
   12.0996   -1.1147    0.9122 H   0  0  0  0  0  0  0  0  0  0  0  0
    7.3065    0.0160   -0.8346 H   0  0  0  0  0  0  0  0  0  0  0  0
    7.3869    0.6519    0.8390 H   0  0  0  0  0  0  0  0  0  0  0  0
  1  2  1  0  0  0  0
  2  3  1  0  0  0  0
  2  7  2  0  0  0  0
  3  4  2  0  0  0  0
  3 32  1  0  0  0  0
  4  5  1  0  0  0  0
  4 33  1  0  0  0  0
  5  6  2  0  0  0  0
  5 31  1  0  0  0  0
  6  7  1  0  0  0  0
  6  8  1  0  0  0  0
  7 34  1  0  0  0  0
  8  9  1  0  0  0  0
  8 22  1  0  0  0  0
  8 35  1  0  0  0  0
  9 10  2  0  0  0  0
  9 11  1  0  0  0  0
 11 12  1  0  0  0  0
 11 36  1  0  0  0  0
 12 13  1  0  0  0  0
 12 21  2  0  0  0  0
 13 14  2  0  0  0  0
 13 37  1  0  0  0  0
 14 15  1  0  0  0  0
 15 16  2  0  0  0  0
 15 38  1  0  0  0  0
 16 17  1  0  0  0  0
 16 21  1  0  0  0  0
 17 18  2  0  0  0  0
 17 39  1  0  0  0  0
 18 19  1  0  0  0  0
 18 40  1  0  0  0  0
 19 20  2  0  0  0  0
 19 41  1  0  0  0  0
 20 21  1  0  0  0  0
 20 42  1  0  0  0  0
 22 23  1  0  0  0  0
 22 43  1  0  0  0  0
 22 44  1  0  0  0  0
 23 24  1  0  0  0  0
 23 31  1  0  0  0  0
 24 25  2  0  0  0  0
 24 26  2  0  0  0  0
 24 27  1  0  0  0  0
 27 28  1  0  0  0  0
 27 30  1  0  0  0  0
 27 45  1  0  0  0  0
 28 29  1  0  0  0  0
 28 46  1  0  0  0  0
 28 47  1  0  0  0  0
 29 30  1  0  0  0  0
 29 48  1  0  0  0  0
 30 49  1  0  0  0  0
 30 50  1  0  0  0  0
 31 51  1  0  0  0  0
 31 52  1  0  0  0  0
M  END
$$$$
