
 OpenBabel07202414203D

 54 56  0  0  0  0  0  0  0  0999 V2000
    1.9049   -0.1160    0.0719 C   0  0  0  0  0  0  0  0  0  0  0  0
    1.1624   -1.2948   -0.0024 C   0  0  0  0  0  0  0  0  0  0  0  0
   -0.2350   -1.2515    0.0554 C   0  0  0  0  0  0  0  0  0  0  0  0
   -0.8733   -0.0032    0.1384 C   0  0  0  0  0  0  0  0  0  0  0  0
   -0.1416    1.1885    0.2399 C   0  0  0  0  0  0  0  0  0  0  0  0
    1.2588    1.1173    0.1975 C   0  0  0  0  0  0  0  0  0  0  0  0
   -0.8569    2.5187    0.3288 C   0  0  0  0  0  0  0  0  0  0  0  0
   -1.2898    3.0018    1.6378 N   0  0  0  0  0  0  0  0  0  0  0  0
   -0.2508    3.2713    2.6271 C   0  0  0  0  0  0  0  0  0  0  0  0
    0.1408    2.0810    3.5190 C   0  0  0  0  0  0  0  0  0  0  0  0
   -0.9879    1.3087    4.0455 N   0  0  0  0  0  0  0  0  0  0  0  0
   -2.1623    1.1667    3.1825 C   0  0  0  0  0  0  0  0  0  0  0  0
   -2.4500    2.3560    2.2514 C   0  0  0  0  0  0  0  0  0  0  0  0
   -0.8306    0.3141    5.0164 C   0  0  0  0  0  0  0  0  0  0  0  0
   -1.7683   -0.4169    5.3508 O   0  0  0  0  0  0  0  0  0  0  0  0
    0.5412    0.1112    5.6370 C   0  0  0  0  0  0  0  0  0  0  0  0
    0.7309    1.1696    7.0428 Cl  0  0  0  0  0  0  0  0  0  0  0  0
   -1.0643   -2.5105    0.0147 C   0  0  0  0  0  0  0  0  0  0  0  0
   -1.4650   -2.8364   -1.3290 N   0  0  0  0  0  0  0  0  0  0  0  0
   -2.3493   -3.8644   -1.5385 C   0  0  0  0  0  0  0  0  0  0  0  0
   -2.8046   -4.5297   -0.6129 O   0  0  0  0  0  0  0  0  0  0  0  0
   -2.6967   -4.0740   -2.8546 N   0  0  0  0  0  0  0  0  0  0  0  0
   -2.0891   -3.4491   -4.0311 C   0  0  0  0  0  0  0  0  0  0  0  0
   -3.1722   -2.6980   -4.8058 C   0  0  0  0  0  0  0  0  0  0  0  0
   -4.2211   -3.5985   -5.2015 O   0  0  0  0  0  0  0  0  0  0  0  0
   -4.8330   -4.2213   -4.0554 C   0  0  0  0  0  0  0  0  0  0  0  0
   -3.8052   -4.9696   -3.1920 C   0  0  0  0  0  0  0  0  0  0  0  0
    2.9913   -0.1566    0.0230 H   0  0  0  0  0  0  0  0  0  0  0  0
    1.6793   -2.2480   -0.1008 H   0  0  0  0  0  0  0  0  0  0  0  0
   -1.9611    0.0382    0.1360 H   0  0  0  0  0  0  0  0  0  0  0  0
    1.8571    2.0245    0.2505 H   0  0  0  0  0  0  0  0  0  0  0  0
   -1.7245    2.4845   -0.3442 H   0  0  0  0  0  0  0  0  0  0  0  0
   -0.2135    3.2854   -0.1234 H   0  0  0  0  0  0  0  0  0  0  0  0
   -0.6354    4.0651    3.2827 H   0  0  0  0  0  0  0  0  0  0  0  0
    0.6431    3.6987    2.1574 H   0  0  0  0  0  0  0  0  0  0  0  0
    0.7170    2.4670    4.3668 H   0  0  0  0  0  0  0  0  0  0  0  0
    0.7871    1.3872    2.9758 H   0  0  0  0  0  0  0  0  0  0  0  0
   -3.0431    0.9945    3.8140 H   0  0  0  0  0  0  0  0  0  0  0  0
   -2.0179    0.2524    2.5992 H   0  0  0  0  0  0  0  0  0  0  0  0
   -2.9498    3.1251    2.8563 H   0  0  0  0  0  0  0  0  0  0  0  0
   -3.1919    2.0676    1.4966 H   0  0  0  0  0  0  0  0  0  0  0  0
    1.3505    0.2934    4.9269 H   0  0  0  0  0  0  0  0  0  0  0  0
    0.6286   -0.9293    5.9662 H   0  0  0  0  0  0  0  0  0  0  0  0
   -1.9630   -2.3772    0.6299 H   0  0  0  0  0  0  0  0  0  0  0  0
   -0.5129   -3.3600    0.4334 H   0  0  0  0  0  0  0  0  0  0  0  0
   -1.5880   -2.0479   -1.9442 H   0  0  0  0  0  0  0  0  0  0  0  0
   -1.6867   -4.2638   -4.6456 H   0  0  0  0  0  0  0  0  0  0  0  0
   -1.2574   -2.7901   -3.7754 H   0  0  0  0  0  0  0  0  0  0  0  0
   -2.7497   -2.2540   -5.7118 H   0  0  0  0  0  0  0  0  0  0  0  0
   -3.6033   -1.8916   -4.2000 H   0  0  0  0  0  0  0  0  0  0  0  0
   -5.5912   -4.9187   -4.4251 H   0  0  0  0  0  0  0  0  0  0  0  0
   -5.3441   -3.4472   -3.4711 H   0  0  0  0  0  0  0  0  0  0  0  0
   -3.3785   -5.8049   -3.7596 H   0  0  0  0  0  0  0  0  0  0  0  0
   -4.2879   -5.3742   -2.2975 H   0  0  0  0  0  0  0  0  0  0  0  0
  1  2  1  0  0  0  0
  1  6  2  0  0  0  0
  1 28  1  0  0  0  0
  2  3  2  0  0  0  0
  2 29  1  0  0  0  0
  3  4  1  0  0  0  0
  3 18  1  0  0  0  0
  4  5  2  0  0  0  0
  4 30  1  0  0  0  0
  5  6  1  0  0  0  0
  5  7  1  0  0  0  0
  6 31  1  0  0  0  0
  7  8  1  0  0  0  0
  7 32  1  0  0  0  0
  7 33  1  0  0  0  0
  8  9  1  0  0  0  0
  8 13  1  0  0  0  0
  9 10  1  0  0  0  0
  9 34  1  0  0  0  0
  9 35  1  0  0  0  0
 10 11  1  0  0  0  0
 10 36  1  0  0  0  0
 10 37  1  0  0  0  0
 11 12  1  0  0  0  0
 11 14  1  0  0  0  0
 12 13  1  0  0  0  0
 12 38  1  0  0  0  0
 12 39  1  0  0  0  0
 13 40  1  0  0  0  0
 13 41  1  0  0  0  0
 14 15  2  0  0  0  0
 14 16  1  0  0  0  0
 16 17  1  0  0  0  0
 16 42  1  0  0  0  0
 16 43  1  0  0  0  0
 18 19  1  0  0  0  0
 18 44  1  0  0  0  0
 18 45  1  0  0  0  0
 19 20  1  0  0  0  0
 19 46  1  0  0  0  0
 20 21  2  0  0  0  0
 20 22  1  0  0  0  0
 22 23  1  0  0  0  0
 22 27  1  0  0  0  0
 23 24  1  0  0  0  0
 23 47  1  0  0  0  0
 23 48  1  0  0  0  0
 24 25  1  0  0  0  0
 24 49  1  0  0  0  0
 24 50  1  0  0  0  0
 25 26  1  0  0  0  0
 26 27  1  0  0  0  0
 26 51  1  0  0  0  0
 26 52  1  0  0  0  0
 27 53  1  0  0  0  0
 27 54  1  0  0  0  0
M  END
$$$$
