
 OpenBabel07202414133D

 52 55  0  0  1  0  0  0  0  0999 V2000
    4.9082   -0.2465   -6.1403 C   0  0  0  0  0  0  0  0  0  0  0  0
    5.6601   -0.4962   -4.9221 N   0  0  0  0  0  0  0  0  0  0  0  0
    7.0029    0.0665   -4.8714 C   0  0  0  0  0  0  0  0  0  0  0  0
    5.0220   -1.1543   -3.8689 C   0  0  0  0  0  0  0  0  0  0  0  0
    3.8586   -1.5448   -3.9648 O   0  0  0  0  0  0  0  0  0  0  0  0
    5.8721   -1.4838   -2.6427 C   0  0  0  0  0  0  0  0  0  0  0  0
    5.1322   -1.8179   -1.2976 C   0  0  1  0  0  0  0  0  0  0  0  0
    4.5065   -0.4990   -0.7277 C   0  0  0  0  0  0  0  0  0  0  0  0
    4.5701    0.5603   -1.3454 O   0  0  0  0  0  0  0  0  0  0  0  0
    3.9637   -0.6363    0.5422 N   0  0  0  0  0  0  0  0  0  0  0  0
    3.3609    0.3501    1.3731 C   0  0  0  0  0  0  0  0  0  0  0  0
    3.1623    1.6660    0.9660 C   0  0  0  0  0  0  0  0  0  0  0  0
    2.4847    2.5939    1.6851 N   0  0  0  0  0  0  0  0  0  0  0  0
    2.0158    2.2056    2.8878 C   0  0  0  0  0  0  0  0  0  0  0  0
    2.2309    0.9527    3.4556 C   0  0  0  0  0  0  0  0  0  0  0  0
    1.7946    0.6637    4.7594 C   0  0  0  0  0  0  0  0  0  0  0  0
    2.0509   -0.5753    5.3396 C   0  0  0  0  0  0  0  0  0  0  0  0
    2.7220   -1.5442    4.6097 C   0  0  0  0  0  0  0  0  0  0  0  0
    3.1427   -1.2732    3.3062 C   0  0  0  0  0  0  0  0  0  0  0  0
    2.9250   -0.0120    2.6826 C   0  0  0  0  0  0  0  0  0  0  0  0
    4.0808   -2.9273   -1.5294 C   0  0  0  0  0  0  0  0  0  0  0  0
    3.7571   -3.7685   -0.3083 C   0  0  0  0  0  0  0  0  0  0  0  0
    4.8981   -4.3036    0.3482 O   0  0  0  0  0  0  0  0  0  0  0  0
    6.0023   -3.5096    0.4234 C   0  0  0  0  0  0  0  0  0  0  0  0
    7.0036   -3.9813    1.2804 C   0  0  0  0  0  0  0  0  0  0  0  0
    8.1980   -3.2784    1.4368 C   0  0  0  0  0  0  0  0  0  0  0  0
    8.3756   -2.0810    0.7591 C   0  0  0  0  0  0  0  0  0  0  0  0
    9.8466   -1.2056    0.9253 Cl  0  0  0  0  0  0  0  0  0  0  0  0
    7.3735   -1.5934   -0.0785 C   0  0  0  0  0  0  0  0  0  0  0  0
    6.1864   -2.3255   -0.2969 C   0  0  0  0  0  0  0  0  0  0  0  0
    5.2226    0.7020   -6.5888 H   0  0  0  0  0  0  0  0  0  0  0  0
    3.8334   -0.2083   -5.9538 H   0  0  0  0  0  0  0  0  0  0  0  0
    5.1208   -1.0617   -6.8419 H   0  0  0  0  0  0  0  0  0  0  0  0
    7.4155    0.1415   -5.8826 H   0  0  0  0  0  0  0  0  0  0  0  0
    7.6779   -0.5472   -4.2723 H   0  0  0  0  0  0  0  0  0  0  0  0
    6.9341    1.0680   -4.4356 H   0  0  0  0  0  0  0  0  0  0  0  0
    6.5506   -0.6428   -2.4747 H   0  0  0  0  0  0  0  0  0  0  0  0
    6.4876   -2.3473   -2.9352 H   0  0  0  0  0  0  0  0  0  0  0  0
    4.0444   -1.5486    0.9563 H   0  0  0  0  0  0  0  0  0  0  0  0
    3.5431    2.0527    0.0253 H   0  0  0  0  0  0  0  0  0  0  0  0
    1.4408    2.9674    3.4100 H   0  0  0  0  0  0  0  0  0  0  0  0
    1.2713    1.4155    5.3433 H   0  0  0  0  0  0  0  0  0  0  0  0
    1.7403   -0.7773    6.3620 H   0  0  0  0  0  0  0  0  0  0  0  0
    2.9329   -2.5142    5.0584 H   0  0  0  0  0  0  0  0  0  0  0  0
    3.6815   -2.0716    2.8004 H   0  0  0  0  0  0  0  0  0  0  0  0
    4.4659   -3.6221   -2.2897 H   0  0  0  0  0  0  0  0  0  0  0  0
    3.1414   -2.5128   -1.9089 H   0  0  0  0  0  0  0  0  0  0  0  0
    3.1507   -4.6269   -0.6251 H   0  0  0  0  0  0  0  0  0  0  0  0
    3.1380   -3.2344    0.4187 H   0  0  0  0  0  0  0  0  0  0  0  0
    6.8558   -4.9129    1.8226 H   0  0  0  0  0  0  0  0  0  0  0  0
    8.9787   -3.6699    2.0827 H   0  0  0  0  0  0  0  0  0  0  0  0
    7.5353   -0.6369   -0.5715 H   0  0  0  0  0  0  0  0  0  0  0  0
  1  2  1  0  0  0  0
  1 31  1  0  0  0  0
  1 32  1  0  0  0  0
  1 33  1  0  0  0  0
  2  3  1  0  0  0  0
  2  4  1  0  0  0  0
  3 34  1  0  0  0  0
  3 35  1  0  0  0  0
  3 36  1  0  0  0  0
  4  5  2  0  0  0  0
  4  6  1  0  0  0  0
  6 37  1  0  0  0  0
  6 38  1  0  0  0  0
  7 21  1  0  0  0  0
  7 30  1  0  0  0  0
  7  8  1  1  0  0  0
  7  6  1  0  0  0  0
  8  9  2  0  0  0  0
  8 10  1  0  0  0  0
 10 11  1  0  0  0  0
 10 39  1  0  0  0  0
 11 12  1  0  0  0  0
 11 20  2  0  0  0  0
 12 13  2  0  0  0  0
 12 40  1  0  0  0  0
 13 14  1  0  0  0  0
 14 15  2  0  0  0  0
 14 41  1  0  0  0  0
 15 16  1  0  0  0  0
 15 20  1  0  0  0  0
 16 17  2  0  0  0  0
 16 42  1  0  0  0  0
 17 18  1  0  0  0  0
 17 43  1  0  0  0  0
 18 19  2  0  0  0  0
 18 44  1  0  0  0  0
 19 20  1  0  0  0  0
 19 45  1  0  0  0  0
 21 22  1  0  0  0  0
 21 46  1  0  0  0  0
 21 47  1  0  0  0  0
 22 23  1  0  0  0  0
 22 48  1  0  0  0  0
 22 49  1  0  0  0  0
 23 24  1  0  0  0  0
 24 25  1  0  0  0  0
 24 30  2  0  0  0  0
 25 26  2  0  0  0  0
 25 50  1  0  0  0  0
 26 27  1  0  0  0  0
 26 51  1  0  0  0  0
 27 28  1  0  0  0  0
 27 29  2  0  0  0  0
 29 30  1  0  0  0  0
 29 52  1  0  0  0  0
M  END
$$$$
