
 OpenBabel07202414173D

 47 51  0  0  1  0  0  0  0  0999 V2000
    1.8891   -0.1973   -1.8061 Cl  0  0  0  0  0  0  0  0  0  0  0  0
    3.4286   -0.0776   -1.0482 C   0  0  0  0  0  0  0  0  0  0  0  0
    4.1928    1.0643   -1.1650 C   0  0  0  0  0  0  0  0  0  0  0  0
    5.4914    1.0750   -0.6180 C   0  0  0  0  0  0  0  0  0  0  0  0
    6.0000   -0.0319    0.0883 C   0  0  0  0  0  0  0  0  0  0  0  0
    5.1492   -1.0790    0.4139 C   0  0  0  0  0  0  0  0  0  0  0  0
    3.9128   -1.1401   -0.3078 C   0  0  0  0  0  0  0  0  0  0  0  0
    5.6298   -2.2818    1.2758 C   0  0  3  0  0  0  0  0  0  0  0  0
    6.8299   -2.6489    0.3759 C   0  0  0  0  0  0  0  0  0  0  0  0
    7.8896   -1.4915    0.5523 C   0  0  0  0  0  0  0  0  0  0  0  0
    7.3375   -0.1267    0.4514 N   0  0  0  0  0  0  0  0  0  0  0  0
    6.2937   -2.5779    2.7493 C   0  0  0  0  0  0  0  0  0  0  0  0
    5.4430   -3.4966    3.6769 C   0  0  0  0  0  0  0  0  0  0  0  0
    4.0190   -2.9548    3.8698 C   0  0  0  0  0  0  0  0  0  0  0  0
    3.5612   -2.2522    2.6719 N   0  0  0  0  0  0  0  0  0  0  0  0
    3.5262   -0.7729    2.8776 C   0  0  0  0  0  0  0  0  0  0  0  0
    4.6156   -0.0180    3.3331 C   0  0  0  0  0  0  0  0  0  0  0  0
    4.6205    1.2458    3.8159 N   0  0  0  0  0  0  0  0  0  0  0  0
    3.4691    1.9034    3.7132 C   0  0  0  0  0  0  0  0  0  0  0  0
    2.3525    1.3753    3.0952 C   0  0  0  0  0  0  0  0  0  0  0  0
    1.2840    2.2333    2.8358 C   0  0  0  0  0  0  0  0  0  0  0  0
    0.1559    1.7524    2.1966 C   0  0  0  0  0  0  0  0  0  0  0  0
    0.0627    0.3956    1.8890 C   0  0  0  0  0  0  0  0  0  0  0  0
    1.1374   -0.4795    2.1528 C   0  0  0  0  0  0  0  0  0  0  0  0
    2.3399   -0.0059    2.7091 C   0  0  0  0  0  0  0  0  0  0  0  0
    4.2640   -2.9283    1.5756 C   0  0  0  0  0  0  0  0  0  0  0  0
    3.9096   -4.0104    1.1134 O   0  0  0  0  0  0  0  0  0  0  0  0
    3.8182    1.9126   -1.7178 H   0  0  0  0  0  0  0  0  0  0  0  0
    6.1258    1.9483   -0.7930 H   0  0  0  0  0  0  0  0  0  0  0  0
    3.2963   -2.0419   -0.3104 H   0  0  0  0  0  0  0  0  0  0  0  0
    6.5693   -2.7572   -0.6841 H   0  0  0  0  0  0  0  0  0  0  0  0
    7.2971   -3.6031    0.6507 H   0  0  0  0  0  0  0  0  0  0  0  0
    8.7030   -1.6079   -0.1705 H   0  0  0  0  0  0  0  0  0  0  0  0
    8.3609   -1.5465    1.5416 H   0  0  0  0  0  0  0  0  0  0  0  0
    7.9290    0.5142   -0.0789 H   0  0  0  0  0  0  0  0  0  0  0  0
    6.6504   -1.7144    3.2984 H   0  0  0  0  0  0  0  0  0  0  0  0
    7.2254   -3.1505    2.6393 H   0  0  0  0  0  0  0  0  0  0  0  0
    5.9296   -3.6738    4.6404 H   0  0  0  0  0  0  0  0  0  0  0  0
    5.3873   -4.4918    3.2037 H   0  0  0  0  0  0  0  0  0  0  0  0
    3.9755   -2.3016    4.7474 H   0  0  0  0  0  0  0  0  0  0  0  0
    3.3223   -3.7827    4.0514 H   0  0  0  0  0  0  0  0  0  0  0  0
    5.6283   -0.3411    3.2607 H   0  0  0  0  0  0  0  0  0  0  0  0
    3.4931    2.9087    4.1247 H   0  0  0  0  0  0  0  0  0  0  0  0
    1.3526    3.2952    3.0778 H   0  0  0  0  0  0  0  0  0  0  0  0
   -0.6434    2.4380    1.9283 H   0  0  0  0  0  0  0  0  0  0  0  0
   -0.8253    0.0221    1.3980 H   0  0  0  0  0  0  0  0  0  0  0  0
    1.0388   -1.5249    1.8684 H   0  0  0  0  0  0  0  0  0  0  0  0
  1  2  1  0  0  0  0
  2  3  1  0  0  0  0
  2  7  2  0  0  0  0
  3  4  2  0  0  0  0
  3 28  1  0  0  0  0
  4  5  1  0  0  0  0
  4 29  1  0  0  0  0
  5  6  2  0  0  0  0
  5 11  1  0  0  0  0
  6  7  1  0  0  0  0
  6  8  1  0  0  0  0
  7 30  1  0  0  0  0
  8  9  1  0  0  0  0
  8 12  1  0  0  0  0
  8 26  1  0  0  0  0
  9 10  1  0  0  0  0
  9 31  1  0  0  0  0
  9 32  1  0  0  0  0
 10 11  1  0  0  0  0
 10 33  1  0  0  0  0
 10 34  1  0  0  0  0
 11 35  1  0  0  0  0
 12 13  1  0  0  0  0
 12 36  1  0  0  0  0
 12 37  1  0  0  0  0
 13 14  1  0  0  0  0
 13 38  1  0  0  0  0
 13 39  1  0  0  0  0
 14 15  1  0  0  0  0
 14 40  1  0  0  0  0
 14 41  1  0  0  0  0
 15 16  1  0  0  0  0
 15 26  1  0  0  0  0
 16 17  1  0  0  0  0
 16 25  2  0  0  0  0
 17 18  2  0  0  0  0
 17 42  1  0  0  0  0
 18 19  1  0  0  0  0
 19 20  2  0  0  0  0
 19 43  1  0  0  0  0
 20 21  1  0  0  0  0
 20 25  1  0  0  0  0
 21 22  2  0  0  0  0
 21 44  1  0  0  0  0
 22 23  1  0  0  0  0
 22 45  1  0  0  0  0
 23 24  2  0  0  0  0
 23 46  1  0  0  0  0
 24 25  1  0  0  0  0
 24 47  1  0  0  0  0
 26 27  2  0  0  0  0
M  END
$$$$
