
 OpenBabel07202414143D

 49 52  0  0  1  0  0  0  0  0999 V2000
    8.2083   -0.6409   -0.3042 C   0  0  0  0  0  0  0  0  0  0  0  0
    7.0319   -0.1103   -0.9441 N   0  0  0  0  0  0  0  0  0  0  0  0
    5.7824   -0.4735   -0.4944 C   0  0  0  0  0  0  0  0  0  0  0  0
    5.6101   -1.2456    0.4463 O   0  0  0  0  0  0  0  0  0  0  0  0
    4.6118    0.2622   -1.1422 C   0  0  0  0  0  0  0  0  0  0  0  0
    4.7511    0.5893   -2.5622 N   0  0  0  0  0  0  0  0  0  0  0  0
    4.6753   -0.4822   -3.5485 C   0  0  0  0  0  0  0  0  0  0  0  0
    3.6991   -0.1406   -4.6714 C   0  0  3  0  0  0  0  0  0  0  0  0
    2.2732   -0.4903   -4.2378 C   0  0  0  0  0  0  0  0  0  0  0  0
    1.8010   -1.5817   -4.5578 O   0  0  0  0  0  0  0  0  0  0  0  0
    1.6453    0.4466   -3.4420 N   0  0  0  0  0  0  0  0  0  0  0  0
    0.2969    0.4305   -2.9815 C   0  0  0  0  0  0  0  0  0  0  0  0
   -0.5858   -0.6150   -3.2602 C   0  0  0  0  0  0  0  0  0  0  0  0
   -1.9092   -0.5985   -2.9826 N   0  0  0  0  0  0  0  0  0  0  0  0
   -2.3798    0.4970   -2.3585 C   0  0  0  0  0  0  0  0  0  0  0  0
   -1.5923    1.5625   -1.9321 C   0  0  0  0  0  0  0  0  0  0  0  0
   -2.1500    2.6274   -1.2017 C   0  0  0  0  0  0  0  0  0  0  0  0
   -1.3604    3.6676   -0.7393 C   0  0  0  0  0  0  0  0  0  0  0  0
   -0.0014    3.6758   -1.0310 C   0  0  0  0  0  0  0  0  0  0  0  0
    0.5648    2.6355   -1.7718 C   0  0  0  0  0  0  0  0  0  0  0  0
   -0.2100    1.5412   -2.2463 C   0  0  0  0  0  0  0  0  0  0  0  0
    3.8920    1.2909   -5.1431 C   0  0  0  0  0  0  0  0  0  0  0  0
    3.3596    1.7013   -6.3768 C   0  0  0  0  0  0  0  0  0  0  0  0
    3.5131    3.0218   -6.8037 C   0  0  0  0  0  0  0  0  0  0  0  0
    2.8289    3.5182   -8.3011 Cl  0  0  0  0  0  0  0  0  0  0  0  0
    4.2033    3.9447   -6.0203 C   0  0  0  0  0  0  0  0  0  0  0  0
    4.7391    3.5499   -4.7929 C   0  0  0  0  0  0  0  0  0  0  0  0
    4.5828    2.2303   -4.3489 C   0  0  0  0  0  0  0  0  0  0  0  0
    5.0198    1.8838   -2.9625 C   0  0  0  0  0  0  0  0  0  0  0  0
    5.4772    2.7371   -2.2131 O   0  0  0  0  0  0  0  0  0  0  0  0
    9.0920   -0.1512   -0.7184 H   0  0  0  0  0  0  0  0  0  0  0  0
    8.2554   -1.7178   -0.4892 H   0  0  0  0  0  0  0  0  0  0  0  0
    8.1528   -0.4658    0.7742 H   0  0  0  0  0  0  0  0  0  0  0  0
    7.1013    0.7377   -1.4981 H   0  0  0  0  0  0  0  0  0  0  0  0
    4.4436    1.1827   -0.5726 H   0  0  0  0  0  0  0  0  0  0  0  0
    3.7151   -0.3597   -1.0457 H   0  0  0  0  0  0  0  0  0  0  0  0
    4.4193   -1.4275   -3.0578 H   0  0  0  0  0  0  0  0  0  0  0  0
    5.6858   -0.5898   -3.9667 H   0  0  0  0  0  0  0  0  0  0  0  0
    3.9294   -0.7977   -5.5222 H   0  0  0  0  0  0  0  0  0  0  0  0
    2.1585    1.2956   -3.2587 H   0  0  0  0  0  0  0  0  0  0  0  0
   -0.2685   -1.5372   -3.7348 H   0  0  0  0  0  0  0  0  0  0  0  0
   -3.4563    0.4884   -2.1953 H   0  0  0  0  0  0  0  0  0  0  0  0
   -3.2164    2.6264   -0.9624 H   0  0  0  0  0  0  0  0  0  0  0  0
   -1.7956    4.4680   -0.1489 H   0  0  0  0  0  0  0  0  0  0  0  0
    0.6270    4.4862   -0.6664 H   0  0  0  0  0  0  0  0  0  0  0  0
    1.6338    2.6899   -1.9475 H   0  0  0  0  0  0  0  0  0  0  0  0
    2.8134    0.9960   -7.0020 H   0  0  0  0  0  0  0  0  0  0  0  0
    4.3118    4.9755   -6.3495 H   0  0  0  0  0  0  0  0  0  0  0  0
    5.2521    4.2837   -4.1725 H   0  0  0  0  0  0  0  0  0  0  0  0
  1  2  1  0  0  0  0
  1 31  1  0  0  0  0
  1 32  1  0  0  0  0
  1 33  1  0  0  0  0
  2  3  1  0  0  0  0
  2 34  1  0  0  0  0
  3  4  2  0  0  0  0
  3  5  1  0  0  0  0
  5  6  1  0  0  0  0
  5 35  1  0  0  0  0
  5 36  1  0  0  0  0
  6  7  1  0  0  0  0
  6 29  1  0  0  0  0
  7  8  1  0  0  0  0
  7 37  1  0  0  0  0
  7 38  1  0  0  0  0
  8  9  1  0  0  0  0
  8 22  1  0  0  0  0
  8 39  1  0  0  0  0
  9 10  2  0  0  0  0
  9 11  1  0  0  0  0
 11 12  1  0  0  0  0
 11 40  1  0  0  0  0
 12 13  1  0  0  0  0
 12 21  2  0  0  0  0
 13 14  2  0  0  0  0
 13 41  1  0  0  0  0
 14 15  1  0  0  0  0
 15 16  2  0  0  0  0
 15 42  1  0  0  0  0
 16 17  1  0  0  0  0
 16 21  1  0  0  0  0
 17 18  2  0  0  0  0
 17 43  1  0  0  0  0
 18 19  1  0  0  0  0
 18 44  1  0  0  0  0
 19 20  2  0  0  0  0
 19 45  1  0  0  0  0
 20 21  1  0  0  0  0
 20 46  1  0  0  0  0
 22 23  1  0  0  0  0
 22 28  2  0  0  0  0
 23 24  2  0  0  0  0
 23 47  1  0  0  0  0
 24 25  1  0  0  0  0
 24 26  1  0  0  0  0
 26 27  2  0  0  0  0
 26 48  1  0  0  0  0
 27 28  1  0  0  0  0
 27 49  1  0  0  0  0
 28 29  1  0  0  0  0
 29 30  2  0  0  0  0
M  END
$$$$
