
 OpenBabel07202414163D

 40 42  0  0  0  0  0  0  0  0999 V2000
    6.0085    3.8422    4.8266 C   0  0  0  0  0  0  0  0  0  0  0  0
    6.5374    4.8998    3.9112 C   0  0  0  0  0  0  0  0  0  0  0  0
    7.4912    5.8404    4.3340 C   0  0  0  0  0  0  0  0  0  0  0  0
    7.9019    6.8526    3.4652 C   0  0  0  0  0  0  0  0  0  0  0  0
    7.4524    7.0462    2.1994 N   0  0  0  0  0  0  0  0  0  0  0  0
    6.5370    6.1249    1.8485 C   0  0  0  0  0  0  0  0  0  0  0  0
    6.0561    5.0640    2.6028 C   0  0  0  0  0  0  0  0  0  0  0  0
    5.1120    4.3575    1.8985 N   0  0  0  0  0  0  0  0  0  0  0  0
    4.9585    5.0081    0.7615 C   0  0  0  0  0  0  0  0  0  0  0  0
    5.8437    6.0604    0.6728 N   0  0  0  0  0  0  0  0  0  0  0  0
    3.9152    4.7124   -0.2696 C   0  0  0  0  0  0  0  0  0  0  0  0
    2.5869    5.4281    0.0572 C   0  0  0  0  0  0  0  0  0  0  0  0
    1.9385    4.9823    1.3814 C   0  0  0  0  0  0  0  0  0  0  0  0
    1.2380    3.6337    1.2916 C   0  0  0  0  0  0  0  0  0  0  0  0
    0.2647    3.6120    0.2004 N   0  0  0  0  0  0  0  0  0  0  0  0
    0.7860    3.9918   -1.1119 C   0  0  0  0  0  0  0  0  0  0  0  0
    1.5609    5.3095   -1.0823 C   0  0  0  0  0  0  0  0  0  0  0  0
   -0.9042    2.8559    0.3905 C   0  0  0  0  0  0  0  0  0  0  0  0
   -1.1327    2.2897    1.4606 O   0  0  0  0  0  0  0  0  0  0  0  0
   -1.8829    2.8145   -0.7776 C   0  0  0  0  0  0  0  0  0  0  0  0
   -3.3341    1.8588   -0.4001 Cl  0  0  0  0  0  0  0  0  0  0  0  0
    6.6034    3.7632    5.7414 H   0  0  0  0  0  0  0  0  0  0  0  0
    6.0205    2.8680    4.3279 H   0  0  0  0  0  0  0  0  0  0  0  0
    4.9768    4.0816    5.1053 H   0  0  0  0  0  0  0  0  0  0  0  0
    7.9078    5.7929    5.3360 H   0  0  0  0  0  0  0  0  0  0  0  0
    8.6437    7.5789    3.7951 H   0  0  0  0  0  0  0  0  0  0  0  0
    5.9272    6.7291   -0.0780 H   0  0  0  0  0  0  0  0  0  0  0  0
    3.7719    3.6281   -0.3383 H   0  0  0  0  0  0  0  0  0  0  0  0
    4.2823    5.0421   -1.2510 H   0  0  0  0  0  0  0  0  0  0  0  0
    2.8254    6.4975    0.1611 H   0  0  0  0  0  0  0  0  0  0  0  0
    1.1924    5.7375    1.6622 H   0  0  0  0  0  0  0  0  0  0  0  0
    2.6620    4.9614    2.2011 H   0  0  0  0  0  0  0  0  0  0  0  0
    0.7462    3.4288    2.2474 H   0  0  0  0  0  0  0  0  0  0  0  0
    1.9518    2.8185    1.1136 H   0  0  0  0  0  0  0  0  0  0  0  0
   -0.0273    4.0870   -1.8357 H   0  0  0  0  0  0  0  0  0  0  0  0
    1.4255    3.1697   -1.4536 H   0  0  0  0  0  0  0  0  0  0  0  0
    0.8327    6.1224   -0.9593 H   0  0  0  0  0  0  0  0  0  0  0  0
    2.0417    5.4722   -2.0538 H   0  0  0  0  0  0  0  0  0  0  0  0
   -1.4140    2.3498   -1.6476 H   0  0  0  0  0  0  0  0  0  0  0  0
   -2.2147    3.8291   -1.0132 H   0  0  0  0  0  0  0  0  0  0  0  0
  1  2  1  0  0  0  0
  1 22  1  0  0  0  0
  1 23  1  0  0  0  0
  1 24  1  0  0  0  0
  2  3  1  0  0  0  0
  2  7  2  0  0  0  0
  3  4  2  0  0  0  0
  3 25  1  0  0  0  0
  4  5  1  0  0  0  0
  4 26  1  0  0  0  0
  5  6  2  0  0  0  0
  6  7  1  0  0  0  0
  6 10  1  0  0  0  0
  7  8  1  0  0  0  0
  8  9  2  0  0  0  0
  9 10  1  0  0  0  0
  9 11  1  0  0  0  0
 10 27  1  0  0  0  0
 11 12  1  0  0  0  0
 11 28  1  0  0  0  0
 11 29  1  0  0  0  0
 12 13  1  0  0  0  0
 12 17  1  0  0  0  0
 12 30  1  0  0  0  0
 13 14  1  0  0  0  0
 13 31  1  0  0  0  0
 13 32  1  0  0  0  0
 14 15  1  0  0  0  0
 14 33  1  0  0  0  0
 14 34  1  0  0  0  0
 15 16  1  0  0  0  0
 15 18  1  0  0  0  0
 16 17  1  0  0  0  0
 16 35  1  0  0  0  0
 16 36  1  0  0  0  0
 17 37  1  0  0  0  0
 17 38  1  0  0  0  0
 18 19  2  0  0  0  0
 18 20  1  0  0  0  0
 20 21  1  0  0  0  0
 20 39  1  0  0  0  0
 20 40  1  0  0  0  0
M  END
$$$$
