
 OpenBabel07202414193D

 53 55  0  0  1  0  0  0  0  0999 V2000
    1.0465   -2.1696   -0.4271 N   0  0  0  0  0  0  0  0  0  0  0  0
    2.6293   -1.7617   -0.0952 S   0  0  0  0  0  0  0  0  0  0  0  0
    2.6018   -0.6039    0.7644 O   0  0  0  0  0  0  0  0  0  0  0  0
    3.2625   -2.9929    0.3172 O   0  0  0  0  0  0  0  0  0  0  0  0
    3.2284   -1.3379   -1.5336 O   0  0  0  0  0  0  0  0  0  0  0  0
    4.6139   -1.0844   -1.5593 C   0  0  0  0  0  0  0  0  0  0  0  0
    5.1729   -0.7622   -2.9441 C   0  0  0  0  0  0  0  0  0  0  0  0
    4.4292   -0.4292   -3.8666 O   0  0  0  0  0  0  0  0  0  0  0  0
    6.5577   -0.8055   -3.0834 N   0  0  0  0  0  0  0  0  0  0  0  0
    7.5002   -1.3986   -2.1224 C   0  0  0  0  0  0  0  0  0  0  0  0
    8.6897   -0.4769   -1.8146 C   0  0  0  0  0  0  0  0  0  0  0  0
    9.3263    0.0953   -3.0458 N   0  0  0  0  0  0  0  0  0  0  0  0
   10.3100   -1.0098   -3.9265 S   0  0  0  0  0  0  0  0  0  0  0  0
    9.5991   -2.2557   -4.0937 O   0  0  0  0  0  0  0  0  0  0  0  0
   10.8637   -0.2944   -5.0598 O   0  0  0  0  0  0  0  0  0  0  0  0
   11.7045   -1.4400   -2.9906 C   0  0  0  0  0  0  0  0  0  0  0  0
   11.9884   -2.7579   -2.5116 C   0  0  0  0  0  0  0  0  0  0  0  0
   13.1860   -2.8108   -1.8308 C   0  0  0  0  0  0  0  0  0  0  0  0
   13.9636   -1.2862   -1.7806 S   0  0  0  0  0  0  0  0  0  0  0  0
   12.7066   -0.5475   -2.6774 C   0  0  0  0  0  0  0  0  0  0  0  0
    8.2791    0.7650   -3.9343 C   0  0  2  0  0  0  0  0  0  0  0  0
    7.5779    1.9928   -3.3279 C   0  0  0  0  0  0  0  0  0  0  0  0
    6.4933    2.3933   -3.7547 O   0  0  0  0  0  0  0  0  0  0  0  0
    8.1926    2.6445   -2.2846 N   0  0  0  0  0  0  0  0  0  0  0  0
    7.5014    3.7309   -1.6114 C   0  0  0  0  0  0  0  0  0  0  0  0
    7.8836    3.9042   -0.1570 C   0  0  0  0  0  0  0  0  0  0  0  0
    6.9211    4.3658    0.7452 C   0  0  0  0  0  0  0  0  0  0  0  0
    7.2856    4.6061    2.0664 C   0  0  0  0  0  0  0  0  0  0  0  0
    8.6014    4.3922    2.4522 C   0  0  0  0  0  0  0  0  0  0  0  0
    9.4972    3.9349    1.4986 C   0  0  0  0  0  0  0  0  0  0  0  0
    9.1737    3.6814    0.2074 N   0  0  0  0  0  0  0  0  0  0  0  0
    7.1676   -0.2496   -4.3070 C   0  0  0  0  0  0  0  0  0  0  0  0
    0.5226   -2.2154    0.4450 H   0  0  0  0  0  0  0  0  0  0  0  0
    1.0188   -3.0471   -0.9437 H   0  0  0  0  0  0  0  0  0  0  0  0
    5.1139   -1.9710   -1.1698 H   0  0  0  0  0  0  0  0  0  0  0  0
    4.8317   -0.2181   -0.9230 H   0  0  0  0  0  0  0  0  0  0  0  0
    7.8230   -2.3532   -2.5453 H   0  0  0  0  0  0  0  0  0  0  0  0
    7.0222   -1.6388   -1.1740 H   0  0  0  0  0  0  0  0  0  0  0  0
    9.4359   -0.9949   -1.2047 H   0  0  0  0  0  0  0  0  0  0  0  0
    8.3323    0.3519   -1.1940 H   0  0  0  0  0  0  0  0  0  0  0  0
   11.3607   -3.6278   -2.6733 H   0  0  0  0  0  0  0  0  0  0  0  0
   13.6517   -3.6727   -1.3700 H   0  0  0  0  0  0  0  0  0  0  0  0
   12.7708    0.4969   -2.9518 H   0  0  0  0  0  0  0  0  0  0  0  0
    8.7709    1.1385   -4.8404 H   0  0  0  0  0  0  0  0  0  0  0  0
    9.1706    2.4839   -2.0683 H   0  0  0  0  0  0  0  0  0  0  0  0
    6.4225    3.5416   -1.6677 H   0  0  0  0  0  0  0  0  0  0  0  0
    7.7111    4.6579   -2.1548 H   0  0  0  0  0  0  0  0  0  0  0  0
    5.8975    4.5453    0.4274 H   0  0  0  0  0  0  0  0  0  0  0  0
    6.5515    4.9672    2.7816 H   0  0  0  0  0  0  0  0  0  0  0  0
    8.9210    4.5840    3.4708 H   0  0  0  0  0  0  0  0  0  0  0  0
   10.5382    3.7627    1.7578 H   0  0  0  0  0  0  0  0  0  0  0  0
    7.5634   -1.0870   -4.8896 H   0  0  0  0  0  0  0  0  0  0  0  0
    6.4109    0.2256   -4.9418 H   0  0  0  0  0  0  0  0  0  0  0  0
  1  2  1  0  0  0  0
  1 33  1  0  0  0  0
  1 34  1  0  0  0  0
  2  3  2  0  0  0  0
  2  4  2  0  0  0  0
  2  5  1  0  0  0  0
  5  6  1  0  0  0  0
  6  7  1  0  0  0  0
  6 35  1  0  0  0  0
  6 36  1  0  0  0  0
  7  8  2  0  0  0  0
  7  9  1  0  0  0  0
  9 10  1  0  0  0  0
  9 32  1  0  0  0  0
 10 11  1  0  0  0  0
 10 37  1  0  0  0  0
 10 38  1  0  0  0  0
 11 12  1  0  0  0  0
 11 39  1  0  0  0  0
 11 40  1  0  0  0  0
 12 13  1  0  0  0  0
 12 21  1  0  0  0  0
 13 14  2  0  0  0  0
 13 15  2  0  0  0  0
 13 16  1  0  0  0  0
 16 17  1  0  0  0  0
 16 20  2  0  0  0  0
 17 18  2  0  0  0  0
 17 41  1  0  0  0  0
 18 19  1  0  0  0  0
 18 42  1  0  0  0  0
 19 20  1  0  0  0  0
 20 43  1  0  0  0  0
 21 32  1  0  0  0  0
 21 22  1  0  0  0  0
 21 44  1  6  0  0  0
 22 23  2  0  0  0  0
 22 24  1  0  0  0  0
 24 25  1  0  0  0  0
 24 45  1  0  0  0  0
 25 26  1  0  0  0  0
 25 46  1  0  0  0  0
 25 47  1  0  0  0  0
 26 27  1  0  0  0  0
 26 31  2  0  0  0  0
 27 28  2  0  0  0  0
 27 48  1  0  0  0  0
 28 29  1  0  0  0  0
 28 49  1  0  0  0  0
 29 30  2  0  0  0  0
 29 50  1  0  0  0  0
 30 31  1  0  0  0  0
 30 51  1  0  0  0  0
 32 52  1  0  0  0  0
 32 53  1  0  0  0  0
M  END
$$$$
