
 OpenBabel07202414193D

 50 53  0  0  1  0  0  0  0  0999 V2000
    1.2474   -0.2171   -0.0772 O   0  0  0  0  0  0  0  0  0  0  0  0
    2.3178    0.3680    0.0917 C   0  0  0  0  0  0  0  0  0  0  0  0
    2.6734    1.4333   -0.9365 C   0  0  0  0  0  0  0  0  0  0  0  0
    3.1515    0.9219   -2.2764 C   0  0  0  0  0  0  0  0  0  0  0  0
    3.7468   -0.3343   -2.4124 C   0  0  0  0  0  0  0  0  0  0  0  0
    4.1991   -0.8466   -3.5751 N   0  0  0  0  0  0  0  0  0  0  0  0
    4.0422   -0.0757   -4.6764 C   0  0  0  0  0  0  0  0  0  0  0  0
    3.4792    1.2023   -4.6741 C   0  0  0  0  0  0  0  0  0  0  0  0
    3.3539    1.9559   -5.8545 C   0  0  0  0  0  0  0  0  0  0  0  0
    2.7998    3.2367   -5.8241 C   0  0  0  0  0  0  0  0  0  0  0  0
    2.3831    3.7751   -4.6189 C   0  0  0  0  0  0  0  0  0  0  0  0
    2.5027    3.0338   -3.4434 C   0  0  0  0  0  0  0  0  0  0  0  0
    3.0411    1.7232   -3.4421 C   0  0  0  0  0  0  0  0  0  0  0  0
    3.2079    0.0774    1.1339 N   0  0  0  0  0  0  0  0  0  0  0  0
    4.3608    0.9496    1.4073 C   0  0  0  0  0  0  0  0  0  0  0  0
    5.5870    0.1712    1.8449 C   0  0  0  0  0  0  0  0  0  0  0  0
    5.2767   -0.6368    3.0850 C   0  0  0  0  0  0  0  0  0  0  0  0
    4.0873   -1.5500    2.8253 C   0  0  0  0  0  0  0  0  0  0  0  0
    2.8270   -0.8141    2.2876 C   0  0  2  0  0  0  0  0  0  0  0  0
    1.6424   -1.8118    2.0819 C   0  0  0  0  0  0  0  0  0  0  0  0
    1.1869   -2.5502    3.3521 C   0  0  0  0  0  0  0  0  0  0  0  0
    0.5393   -3.8502    2.8802 C   0  0  0  0  0  0  0  0  0  0  0  0
    0.8365   -3.9826    1.3926 C   0  0  0  0  0  0  0  0  0  0  0  0
    1.9009   -2.9427    1.0824 C   0  0  0  0  0  0  0  0  0  0  0  0
    3.3505    2.2034   -0.5740 H   0  0  0  0  0  0  0  0  0  0  0  0
    1.7203    1.9602   -1.0801 H   0  0  0  0  0  0  0  0  0  0  0  0
    3.8815   -1.0035   -1.5630 H   0  0  0  0  0  0  0  0  0  0  0  0
    4.4077   -0.5324   -5.5944 H   0  0  0  0  0  0  0  0  0  0  0  0
    3.6796    1.5468   -6.8086 H   0  0  0  0  0  0  0  0  0  0  0  0
    2.6996    3.8086   -6.7445 H   0  0  0  0  0  0  0  0  0  0  0  0
    1.9559    4.7750   -4.5819 H   0  0  0  0  0  0  0  0  0  0  0  0
    2.1608    3.5009   -2.5257 H   0  0  0  0  0  0  0  0  0  0  0  0
    4.0510    1.6629    2.1826 H   0  0  0  0  0  0  0  0  0  0  0  0
    4.6674    1.5273    0.5394 H   0  0  0  0  0  0  0  0  0  0  0  0
    6.4162    0.8591    2.0426 H   0  0  0  0  0  0  0  0  0  0  0  0
    5.9031   -0.4958    1.0328 H   0  0  0  0  0  0  0  0  0  0  0  0
    5.0631    0.0295    3.9285 H   0  0  0  0  0  0  0  0  0  0  0  0
    6.1502   -1.2390    3.3597 H   0  0  0  0  0  0  0  0  0  0  0  0
    3.8715   -2.0713    3.7611 H   0  0  0  0  0  0  0  0  0  0  0  0
    4.4125   -2.3065    2.1037 H   0  0  0  0  0  0  0  0  0  0  0  0
    2.4985   -0.1122    3.0684 H   0  0  0  0  0  0  0  0  0  0  0  0
    0.7512   -1.2533    1.7730 H   0  0  0  0  0  0  0  0  0  0  0  0
    0.4748   -1.9423    3.9230 H   0  0  0  0  0  0  0  0  0  0  0  0
    2.0050   -2.7913    4.0323 H   0  0  0  0  0  0  0  0  0  0  0  0
   -0.5415   -3.8445    3.0570 H   0  0  0  0  0  0  0  0  0  0  0  0
    0.9529   -4.6987    3.4367 H   0  0  0  0  0  0  0  0  0  0  0  0
   -0.0705   -3.7856    0.8101 H   0  0  0  0  0  0  0  0  0  0  0  0
    1.1801   -4.9902    1.1363 H   0  0  0  0  0  0  0  0  0  0  0  0
    1.8315   -2.6149    0.0415 H   0  0  0  0  0  0  0  0  0  0  0  0
    2.8866   -3.3949    1.2135 H   0  0  0  0  0  0  0  0  0  0  0  0
  1  2  2  0  0  0  0
  2  3  1  0  0  0  0
  2 14  1  0  0  0  0
  3  4  1  0  0  0  0
  3 25  1  0  0  0  0
  3 26  1  0  0  0  0
  4  5  1  0  0  0  0
  4 13  2  0  0  0  0
  5  6  2  0  0  0  0
  5 27  1  0  0  0  0
  6  7  1  0  0  0  0
  7  8  2  0  0  0  0
  7 28  1  0  0  0  0
  8  9  1  0  0  0  0
  8 13  1  0  0  0  0
  9 10  2  0  0  0  0
  9 29  1  0  0  0  0
 10 11  1  0  0  0  0
 10 30  1  0  0  0  0
 11 12  2  0  0  0  0
 11 31  1  0  0  0  0
 12 13  1  0  0  0  0
 12 32  1  0  0  0  0
 14 15  1  0  0  0  0
 14 19  1  0  0  0  0
 15 16  1  0  0  0  0
 15 33  1  0  0  0  0
 15 34  1  0  0  0  0
 16 17  1  0  0  0  0
 16 35  1  0  0  0  0
 16 36  1  0  0  0  0
 17 18  1  0  0  0  0
 17 37  1  0  0  0  0
 17 38  1  0  0  0  0
 18 19  1  0  0  0  0
 18 39  1  0  0  0  0
 18 40  1  0  0  0  0
 19 20  1  0  0  0  0
 19 41  1  1  0  0  0
 20 21  1  0  0  0  0
 20 24  1  0  0  0  0
 20 42  1  0  0  0  0
 21 22  1  0  0  0  0
 21 43  1  0  0  0  0
 21 44  1  0  0  0  0
 22 23  1  0  0  0  0
 22 45  1  0  0  0  0
 22 46  1  0  0  0  0
 23 24  1  0  0  0  0
 23 47  1  0  0  0  0
 23 48  1  0  0  0  0
 24 49  1  0  0  0  0
 24 50  1  0  0  0  0
M  END
$$$$
