
 OpenBabel07202414163D

 39 40  0  0  0  0  0  0  0  0999 V2000
   -2.6371    1.9740   -4.7087 C   0  0  0  0  0  0  0  0  0  0  0  0
   -1.7408    1.1671   -3.8111 C   0  0  0  0  0  0  0  0  0  0  0  0
   -1.0358    0.0964   -4.3903 C   0  0  0  0  0  0  0  0  0  0  0  0
   -0.1821   -0.6619   -3.6080 C   0  0  0  0  0  0  0  0  0  0  0  0
    0.0376   -0.4177   -2.3062 N   0  0  0  0  0  0  0  0  0  0  0  0
   -0.6464    0.6191   -1.7591 C   0  0  0  0  0  0  0  0  0  0  0  0
   -1.5545    1.4357   -2.4413 C   0  0  0  0  0  0  0  0  0  0  0  0
   -2.2566    2.4964   -1.8054 N   0  0  0  0  0  0  0  0  0  0  0  0
   -2.3908    2.6569   -0.4322 C   0  0  0  0  0  0  0  0  0  0  0  0
   -1.9931    1.8652    0.4198 O   0  0  0  0  0  0  0  0  0  0  0  0
   -3.1733    3.8952   -0.0105 C   0  0  0  0  0  0  0  0  0  0  0  0
   -4.6586    3.6396    0.0898 C   0  0  0  0  0  0  0  0  0  0  0  0
   -5.5693    4.4435   -0.6073 C   0  0  0  0  0  0  0  0  0  0  0  0
   -6.9372    4.1588   -0.5647 C   0  0  0  0  0  0  0  0  0  0  0  0
   -8.0350    5.1562   -1.4373 Cl  0  0  0  0  0  0  0  0  0  0  0  0
   -7.4158    3.0695    0.1559 C   0  0  0  0  0  0  0  0  0  0  0  0
   -6.5180    2.2858    0.8715 C   0  0  0  0  0  0  0  0  0  0  0  0
   -6.9840    1.1472    1.5654 N   0  0  0  0  0  0  0  0  0  0  0  0
   -7.0523   -0.3337    0.7959 S   0  0  0  0  0  0  0  0  0  0  0  0
   -5.3322   -0.7346    0.5269 C   0  0  0  0  0  0  0  0  0  0  0  0
   -7.5709   -1.2601    1.7742 O   0  0  0  0  0  0  0  0  0  0  0  0
   -7.6916   -0.1649   -0.4940 O   0  0  0  0  0  0  0  0  0  0  0  0
   -5.1560    2.5898    0.8776 C   0  0  0  0  0  0  0  0  0  0  0  0
   -2.8817    1.4182   -5.6219 H   0  0  0  0  0  0  0  0  0  0  0  0
   -2.1367    2.9019   -5.0033 H   0  0  0  0  0  0  0  0  0  0  0  0
   -3.5887    2.2051   -4.2222 H   0  0  0  0  0  0  0  0  0  0  0  0
   -1.1531   -0.1561   -5.4400 H   0  0  0  0  0  0  0  0  0  0  0  0
    0.3634   -1.5051   -4.0217 H   0  0  0  0  0  0  0  0  0  0  0  0
   -0.3949    0.7785   -0.7158 H   0  0  0  0  0  0  0  0  0  0  0  0
   -2.8068    3.1043   -2.3997 H   0  0  0  0  0  0  0  0  0  0  0  0
   -2.9573    4.7106   -0.7104 H   0  0  0  0  0  0  0  0  0  0  0  0
   -2.7957    4.2191    0.9673 H   0  0  0  0  0  0  0  0  0  0  0  0
   -5.2200    5.2914   -1.1924 H   0  0  0  0  0  0  0  0  0  0  0  0
   -8.4746    2.8249    0.1522 H   0  0  0  0  0  0  0  0  0  0  0  0
   -7.1039    1.1552    2.5778 H   0  0  0  0  0  0  0  0  0  0  0  0
   -4.7944   -0.6554    1.4730 H   0  0  0  0  0  0  0  0  0  0  0  0
   -4.9175   -0.0599   -0.2245 H   0  0  0  0  0  0  0  0  0  0  0  0
   -5.2786   -1.7611    0.1566 H   0  0  0  0  0  0  0  0  0  0  0  0
   -4.4694    1.9796    1.4639 H   0  0  0  0  0  0  0  0  0  0  0  0
  1  2  1  0  0  0  0
  1 24  1  0  0  0  0
  1 25  1  0  0  0  0
  1 26  1  0  0  0  0
  2  3  1  0  0  0  0
  2  7  2  0  0  0  0
  3  4  2  0  0  0  0
  3 27  1  0  0  0  0
  4  5  1  0  0  0  0
  4 28  1  0  0  0  0
  5  6  2  0  0  0  0
  6  7  1  0  0  0  0
  6 29  1  0  0  0  0
  7  8  1  0  0  0  0
  8  9  1  0  0  0  0
  8 30  1  0  0  0  0
  9 10  2  0  0  0  0
  9 11  1  0  0  0  0
 11 12  1  0  0  0  0
 11 31  1  0  0  0  0
 11 32  1  0  0  0  0
 12 13  1  0  0  0  0
 12 23  2  0  0  0  0
 13 14  2  0  0  0  0
 13 33  1  0  0  0  0
 14 15  1  0  0  0  0
 14 16  1  0  0  0  0
 16 17  2  0  0  0  0
 16 34  1  0  0  0  0
 17 18  1  0  0  0  0
 17 23  1  0  0  0  0
 18 19  1  0  0  0  0
 18 35  1  0  0  0  0
 19 20  1  0  0  0  0
 19 21  2  0  0  0  0
 19 22  2  0  0  0  0
 20 36  1  0  0  0  0
 20 37  1  0  0  0  0
 20 38  1  0  0  0  0
 23 39  1  0  0  0  0
M  END
$$$$
