
 OpenBabel07202414203D

 32 34  0  0  0  0  0  0  0  0999 V2000
    0.5952   -0.5251   -1.4035 C   0  0  0  0  0  0  0  0  0  0  0  0
    1.2637    0.7016   -1.3606 C   0  0  0  0  0  0  0  0  0  0  0  0
    1.6616    1.2581   -0.1349 C   0  0  0  0  0  0  0  0  0  0  0  0
    1.3563    0.5697    1.0499 C   0  0  0  0  0  0  0  0  0  0  0  0
    0.6887   -0.6564    0.9996 C   0  0  0  0  0  0  0  0  0  0  0  0
    0.3089   -1.2075   -0.2219 C   0  0  0  0  0  0  0  0  0  0  0  0
    0.3301   -1.4956    2.4593 Cl  0  0  0  0  0  0  0  0  0  0  0  0
    2.3592    2.6055   -0.0914 C   0  0  0  0  0  0  0  0  0  0  0  0
    1.3926    3.7656    0.0088 C   0  0  0  0  0  0  0  0  0  0  0  0
    0.1707    3.6723    0.0919 O   0  0  0  0  0  0  0  0  0  0  0  0
    1.9908    5.0415    0.0023 N   0  0  0  0  0  0  0  0  0  0  0  0
    1.3531    6.2732    0.1285 C   0  0  0  0  0  0  0  0  0  0  0  0
    0.0108    6.6229    0.3568 C   0  0  0  0  0  0  0  0  0  0  0  0
   -0.3043    7.9788    0.3976 C   0  0  0  0  0  0  0  0  0  0  0  0
    0.6600    8.9607    0.2214 C   0  0  0  0  0  0  0  0  0  0  0  0
    1.9971    8.6041    0.0090 C   0  0  0  0  0  0  0  0  0  0  0  0
    2.3468    7.2363   -0.0330 C   0  0  0  0  0  0  0  0  0  0  0  0
    3.5390    6.4938   -0.2063 C   0  0  0  0  0  0  0  0  0  0  0  0
    3.3381    5.1813   -0.1712 N   0  0  0  0  0  0  0  0  0  0  0  0
    4.7452    7.0468   -0.3900 N   0  0  0  0  0  0  0  0  0  0  0  0
   -1.5762    8.3442    0.6085 F   0  0  0  0  0  0  0  0  0  0  0  0
    0.2911   -0.9451   -2.3591 H   0  0  0  0  0  0  0  0  0  0  0  0
    1.4637    1.2240   -2.2945 H   0  0  0  0  0  0  0  0  0  0  0  0
    1.6298    0.9892    2.0151 H   0  0  0  0  0  0  0  0  0  0  0  0
   -0.2139   -2.1588   -0.2598 H   0  0  0  0  0  0  0  0  0  0  0  0
    2.9687    2.7090   -0.9975 H   0  0  0  0  0  0  0  0  0  0  0  0
    3.0355    2.6251    0.7716 H   0  0  0  0  0  0  0  0  0  0  0  0
   -0.7673    5.8800    0.4975 H   0  0  0  0  0  0  0  0  0  0  0  0
    0.3668   10.0059    0.2536 H   0  0  0  0  0  0  0  0  0  0  0  0
    2.7512    9.3748   -0.1185 H   0  0  0  0  0  0  0  0  0  0  0  0
    4.8522    8.0180   -0.6569 H   0  0  0  0  0  0  0  0  0  0  0  0
    5.5136    6.4489   -0.6741 H   0  0  0  0  0  0  0  0  0  0  0  0
  1  2  1  0  0  0  0
  1  6  2  0  0  0  0
  1 22  1  0  0  0  0
  2  3  2  0  0  0  0
  2 23  1  0  0  0  0
  3  4  1  0  0  0  0
  3  8  1  0  0  0  0
  4  5  2  0  0  0  0
  4 24  1  0  0  0  0
  5  6  1  0  0  0  0
  5  7  1  0  0  0  0
  6 25  1  0  0  0  0
  8  9  1  0  0  0  0
  8 26  1  0  0  0  0
  8 27  1  0  0  0  0
  9 10  2  0  0  0  0
  9 11  1  0  0  0  0
 11 12  1  0  0  0  0
 11 19  1  0  0  0  0
 12 13  1  0  0  0  0
 12 17  2  0  0  0  0
 13 14  2  0  0  0  0
 13 28  1  0  0  0  0
 14 15  1  0  0  0  0
 14 21  1  0  0  0  0
 15 16  2  0  0  0  0
 15 29  1  0  0  0  0
 16 17  1  0  0  0  0
 16 30  1  0  0  0  0
 17 18  1  0  0  0  0
 18 19  2  0  0  0  0
 18 20  1  0  0  0  0
 20 31  1  0  0  0  0
 20 32  1  0  0  0  0
M  END
$$$$
