
 OpenBabel07202414173D

 61 66  0  0  1  0  0  0  0  0999 V2000
    0.7884    0.3331    0.1066 Cl  0  0  0  0  0  0  0  0  0  0  0  0
    2.5093    0.3011    0.1000 C   0  0  0  0  0  0  0  0  0  0  0  0
    3.2299    1.4863    0.1162 C   0  0  0  0  0  0  0  0  0  0  0  0
    4.6224    1.4389    0.0957 C   0  0  0  0  0  0  0  0  0  0  0  0
    5.2875    0.1976    0.0703 C   0  0  0  0  0  0  0  0  0  0  0  0
    4.5890   -1.0135    0.0736 C   0  0  0  0  0  0  0  0  0  0  0  0
    3.1720   -0.9318    0.0776 C   0  0  0  0  0  0  0  0  0  0  0  0
    5.2722   -2.3936    0.1304 C   0  0  3  0  0  0  0  0  0  0  0  0
    4.7498   -3.3313   -0.9736 C   0  0  0  0  0  0  0  0  0  0  0  0
    3.7851   -4.2846   -0.3110 C   0  0  0  0  0  0  0  0  0  0  0  0
    3.7457   -3.9800    1.0835 N   0  0  0  0  0  0  0  0  0  0  0  0
    2.7839   -4.5453    2.0012 C   0  0  0  0  0  0  0  0  0  0  0  0
    2.7134   -4.0331    3.3077 C   0  0  0  0  0  0  0  0  0  0  0  0
    1.9384   -4.5137    4.3069 N   0  0  0  0  0  0  0  0  0  0  0  0
    1.1126   -5.5217    3.9852 C   0  0  0  0  0  0  0  0  0  0  0  0
    0.9559   -6.0325    2.7021 C   0  0  0  0  0  0  0  0  0  0  0  0
   -0.0630   -6.9768    2.4637 C   0  0  0  0  0  0  0  0  0  0  0  0
   -0.2822   -7.4985    1.1960 C   0  0  0  0  0  0  0  0  0  0  0  0
    0.5576   -7.1247    0.1676 C   0  0  0  0  0  0  0  0  0  0  0  0
    1.5892   -6.2096    0.4083 C   0  0  0  0  0  0  0  0  0  0  0  0
    1.8163   -5.5733    1.6680 C   0  0  0  0  0  0  0  0  0  0  0  0
    4.7943   -3.1049    1.4159 C   0  0  0  0  0  0  0  0  0  0  0  0
    5.2106   -2.8415    2.5388 O   0  0  0  0  0  0  0  0  0  0  0  0
    6.8147   -2.3926   -0.0044 C   0  0  0  0  0  0  0  0  0  0  0  0
    7.4938   -1.2330    0.5959 N   0  0  0  0  0  0  0  0  0  0  0  0
    7.7977   -1.2834    2.0385 C   0  0  0  0  0  0  0  0  0  0  0  0
    8.5566   -2.5539    2.4275 C   0  0  0  0  0  0  0  0  0  0  0  0
    9.6841   -2.8141    2.0142 O   0  0  0  0  0  0  0  0  0  0  0  0
    7.8468   -3.4053    3.2446 N   0  0  0  0  0  0  0  0  0  0  0  0
    8.4164   -4.6349    3.7376 C   0  0  0  0  0  0  0  0  0  0  0  0
    7.3826   -5.3675    4.5297 C   0  0  0  0  0  0  0  0  0  0  0  0
    6.8273   -4.7572    5.7935 C   0  0  0  0  0  0  0  0  0  0  0  0
    7.7109   -5.9700    5.8725 C   0  0  0  0  0  0  0  0  0  0  0  0
    7.0643    0.2498   -0.0627 S   0  0  0  0  0  0  0  0  0  0  0  0
    7.3335    0.2149   -1.4839 O   0  0  0  0  0  0  0  0  0  0  0  0
    7.5442    1.3094    0.7962 O   0  0  0  0  0  0  0  0  0  0  0  0
    2.7145    2.4455    0.1287 H   0  0  0  0  0  0  0  0  0  0  0  0
    5.1881    2.3695    0.0850 H   0  0  0  0  0  0  0  0  0  0  0  0
    2.5557   -1.8236    0.0872 H   0  0  0  0  0  0  0  0  0  0  0  0
    5.5491   -3.9247   -1.4364 H   0  0  0  0  0  0  0  0  0  0  0  0
    4.2676   -2.7940   -1.7982 H   0  0  0  0  0  0  0  0  0  0  0  0
    4.1620   -5.3080   -0.4182 H   0  0  0  0  0  0  0  0  0  0  0  0
    2.8022   -4.1515   -0.7656 H   0  0  0  0  0  0  0  0  0  0  0  0
    3.2696   -3.1547    3.6195 H   0  0  0  0  0  0  0  0  0  0  0  0
    0.5422   -5.9149    4.8238 H   0  0  0  0  0  0  0  0  0  0  0  0
   -0.7228   -7.2918    3.2711 H   0  0  0  0  0  0  0  0  0  0  0  0
   -1.0965   -8.1934    1.0142 H   0  0  0  0  0  0  0  0  0  0  0  0
    0.4203   -7.5342   -0.8306 H   0  0  0  0  0  0  0  0  0  0  0  0
    2.1976   -6.0183   -0.4616 H   0  0  0  0  0  0  0  0  0  0  0  0
    7.0830   -2.3691   -1.0703 H   0  0  0  0  0  0  0  0  0  0  0  0
    7.2408   -3.3338    0.3624 H   0  0  0  0  0  0  0  0  0  0  0  0
    6.8874   -1.1642    2.6271 H   0  0  0  0  0  0  0  0  0  0  0  0
    8.4661   -0.4611    2.3129 H   0  0  0  0  0  0  0  0  0  0  0  0
    6.8671   -3.2048    3.4397 H   0  0  0  0  0  0  0  0  0  0  0  0
    9.2966   -4.3818    4.3382 H   0  0  0  0  0  0  0  0  0  0  0  0
    8.7527   -5.2409    2.8882 H   0  0  0  0  0  0  0  0  0  0  0  0
    6.6914   -5.9060    3.8901 H   0  0  0  0  0  0  0  0  0  0  0  0
    5.7667   -4.8774    5.9839 H   0  0  0  0  0  0  0  0  0  0  0  0
    7.2339   -3.8120    6.1363 H   0  0  0  0  0  0  0  0  0  0  0  0
    7.2464   -6.9133    6.1365 H   0  0  0  0  0  0  0  0  0  0  0  0
    8.7084   -5.8405    6.2774 H   0  0  0  0  0  0  0  0  0  0  0  0
  1  2  1  0  0  0  0
  2  3  1  0  0  0  0
  2  7  2  0  0  0  0
  3  4  2  0  0  0  0
  3 37  1  0  0  0  0
  4  5  1  0  0  0  0
  4 38  1  0  0  0  0
  5  6  2  0  0  0  0
  5 34  1  0  0  0  0
  6  7  1  0  0  0  0
  6  8  1  0  0  0  0
  7 39  1  0  0  0  0
  8  9  1  0  0  0  0
  8 22  1  0  0  0  0
  8 24  1  0  0  0  0
  9 10  1  0  0  0  0
  9 40  1  0  0  0  0
  9 41  1  0  0  0  0
 10 11  1  0  0  0  0
 10 42  1  0  0  0  0
 10 43  1  0  0  0  0
 11 12  1  0  0  0  0
 11 22  1  0  0  0  0
 12 13  1  0  0  0  0
 12 21  2  0  0  0  0
 13 14  2  0  0  0  0
 13 44  1  0  0  0  0
 14 15  1  0  0  0  0
 15 16  2  0  0  0  0
 15 45  1  0  0  0  0
 16 17  1  0  0  0  0
 16 21  1  0  0  0  0
 17 18  2  0  0  0  0
 17 46  1  0  0  0  0
 18 19  1  0  0  0  0
 18 47  1  0  0  0  0
 19 20  2  0  0  0  0
 19 48  1  0  0  0  0
 20 21  1  0  0  0  0
 20 49  1  0  0  0  0
 22 23  2  0  0  0  0
 24 25  1  0  0  0  0
 24 50  1  0  0  0  0
 24 51  1  0  0  0  0
 25 26  1  0  0  0  0
 25 34  1  0  0  0  0
 26 27  1  0  0  0  0
 26 52  1  0  0  0  0
 26 53  1  0  0  0  0
 27 28  2  0  0  0  0
 27 29  1  0  0  0  0
 29 30  1  0  0  0  0
 29 54  1  0  0  0  0
 30 31  1  0  0  0  0
 30 55  1  0  0  0  0
 30 56  1  0  0  0  0
 31 32  1  0  0  0  0
 31 33  1  0  0  0  0
 31 57  1  0  0  0  0
 32 33  1  0  0  0  0
 32 58  1  0  0  0  0
 32 59  1  0  0  0  0
 33 60  1  0  0  0  0
 33 61  1  0  0  0  0
 34 35  2  0  0  0  0
 34 36  2  0  0  0  0
M  END
$$$$
