
 OpenBabel07202414143D

 69 72  0  0  1  0  0  0  0  0999 V2000
    0.3752    2.6088    2.3291 C   0  0  0  0  0  0  0  0  0  0  0  0
    1.3459    1.7905    1.6721 O   0  0  0  0  0  0  0  0  0  0  0  0
    2.5621    1.7700    2.2764 C   0  0  0  0  0  0  0  0  0  0  0  0
    2.8520    2.4191    3.2785 O   0  0  0  0  0  0  0  0  0  0  0  0
    3.5485    0.9063    1.5170 C   0  0  2  0  0  0  0  0  0  0  0  0
    2.9234   -0.2948    0.8118 C   0  0  0  0  0  0  0  0  0  0  0  0
    4.0853   -1.2595    0.5892 C   0  0  0  0  0  0  0  0  0  0  0  0
    5.1308   -0.9184    1.6613 C   0  0  2  0  0  0  0  0  0  0  0  0
    5.4916   -2.0566    2.4970 N   0  0  0  0  0  0  0  0  0  0  0  0
    6.4947   -2.9121    2.0843 C   0  0  0  0  0  0  0  0  0  0  0  0
    7.1065   -2.7124    1.0301 O   0  0  0  0  0  0  0  0  0  0  0  0
    6.7429   -4.2123    2.8970 C   0  0  3  0  0  0  0  0  0  0  0  0
    6.5445   -4.1638    4.3794 N   0  0  0  0  0  0  0  0  0  0  0  0
    5.3502   -4.5274    5.0271 C   0  0  0  0  0  0  0  0  0  0  0  0
    4.3311   -4.8206    4.4059 O   0  0  0  0  0  0  0  0  0  0  0  0
    5.3019   -4.5735    6.4984 C   0  0  0  0  0  0  0  0  0  0  0  0
    4.5533   -5.4659    7.2366 C   0  0  0  0  0  0  0  0  0  0  0  0
    4.7275   -5.1978    8.5586 O   0  0  0  0  0  0  0  0  0  0  0  0
    5.5655   -4.1243    8.5619 C   0  0  0  0  0  0  0  0  0  0  0  0
    5.9268   -3.6993    7.3736 N   0  0  0  0  0  0  0  0  0  0  0  0
    7.6883   -3.7588    5.1277 C   0  0  0  0  0  0  0  0  0  0  0  0
    8.5309   -4.7168    5.6899 C   0  0  0  0  0  0  0  0  0  0  0  0
    9.5931   -4.3252    6.5158 C   0  0  0  0  0  0  0  0  0  0  0  0
    9.8454   -2.9707    6.8061 C   0  0  0  0  0  0  0  0  0  0  0  0
   10.9994   -2.5204    7.7273 C   0  0  0  0  0  0  0  0  0  0  0  0
   11.8421   -3.6962    8.2752 C   0  0  0  0  0  0  0  0  0  0  0  0
   11.9572   -1.5953    6.9458 C   0  0  0  0  0  0  0  0  0  0  0  0
   10.4603   -1.7498    8.9526 C   0  0  0  0  0  0  0  0  0  0  0  0
    8.9939   -2.0219    6.2043 C   0  0  0  0  0  0  0  0  0  0  0  0
    7.9346   -2.4063    5.3667 C   0  0  0  0  0  0  0  0  0  0  0  0
    6.1666   -5.4129    2.1456 C   0  0  0  0  0  0  0  0  0  0  0  0
    4.8227   -5.4996    1.7542 C   0  0  0  0  0  0  0  0  0  0  0  0
    4.3683   -6.5841    1.0075 C   0  0  0  0  0  0  0  0  0  0  0  0
    5.2836   -7.5501    0.6376 C   0  0  0  0  0  0  0  0  0  0  0  0
    6.5909   -7.5022    0.9680 N   0  0  0  0  0  0  0  0  0  0  0  0
    6.9994   -6.4393    1.7043 C   0  0  0  0  0  0  0  0  0  0  0  0
    4.5506    0.2464    2.4597 C   0  0  0  0  0  0  0  0  0  0  0  0
   -0.5959    2.4262    1.8613 H   0  0  0  0  0  0  0  0  0  0  0  0
    0.6300    3.6651    2.2032 H   0  0  0  0  0  0  0  0  0  0  0  0
    0.2969    2.3529    3.3907 H   0  0  0  0  0  0  0  0  0  0  0  0
    4.0655    1.5424    0.7859 H   0  0  0  0  0  0  0  0  0  0  0  0
    2.4424   -0.0165   -0.1316 H   0  0  0  0  0  0  0  0  0  0  0  0
    2.1610   -0.7686    1.4433 H   0  0  0  0  0  0  0  0  0  0  0  0
    4.5149   -1.0843   -0.4059 H   0  0  0  0  0  0  0  0  0  0  0  0
    3.7472   -2.3000    0.6169 H   0  0  0  0  0  0  0  0  0  0  0  0
    6.0370   -0.5671    1.1504 H   0  0  0  0  0  0  0  0  0  0  0  0
    4.8377   -2.3906    3.1974 H   0  0  0  0  0  0  0  0  0  0  0  0
    7.8348   -4.3243    2.7918 H   0  0  0  0  0  0  0  0  0  0  0  0
    3.9008   -6.2947    6.9949 H   0  0  0  0  0  0  0  0  0  0  0  0
    5.8430   -3.7268    9.5289 H   0  0  0  0  0  0  0  0  0  0  0  0
    8.3592   -5.7759    5.5155 H   0  0  0  0  0  0  0  0  0  0  0  0
   10.2066   -5.1154    6.9400 H   0  0  0  0  0  0  0  0  0  0  0  0
   12.2967   -4.2779    7.4652 H   0  0  0  0  0  0  0  0  0  0  0  0
   11.2352   -4.3753    8.8851 H   0  0  0  0  0  0  0  0  0  0  0  0
   12.6599   -3.3376    8.9122 H   0  0  0  0  0  0  0  0  0  0  0  0
   12.3622   -2.1009    6.0625 H   0  0  0  0  0  0  0  0  0  0  0  0
   12.8038   -1.2853    7.5708 H   0  0  0  0  0  0  0  0  0  0  0  0
   11.4604   -0.6798    6.6061 H   0  0  0  0  0  0  0  0  0  0  0  0
    9.7972   -2.3746    9.5596 H   0  0  0  0  0  0  0  0  0  0  0  0
    9.9030   -0.8497    8.6685 H   0  0  0  0  0  0  0  0  0  0  0  0
   11.2854   -1.4202    9.6002 H   0  0  0  0  0  0  0  0  0  0  0  0
    9.1314   -0.9593    6.3966 H   0  0  0  0  0  0  0  0  0  0  0  0
    7.2817   -1.6414    4.9555 H   0  0  0  0  0  0  0  0  0  0  0  0
    4.1086   -4.7260    2.0261 H   0  0  0  0  0  0  0  0  0  0  0  0
    3.3262   -6.6652    0.7187 H   0  0  0  0  0  0  0  0  0  0  0  0
    4.9822   -8.4076    0.0428 H   0  0  0  0  0  0  0  0  0  0  0  0
    8.0679   -6.4317    1.9060 H   0  0  0  0  0  0  0  0  0  0  0  0
    5.3374    0.9480    2.7616 H   0  0  0  0  0  0  0  0  0  0  0  0
    4.0610   -0.1023    3.3768 H   0  0  0  0  0  0  0  0  0  0  0  0
  1  2  1  0  0  0  0
  1 38  1  0  0  0  0
  1 39  1  0  0  0  0
  1 40  1  0  0  0  0
  2  3  1  0  0  0  0
  3  4  2  0  0  0  0
  3  5  1  0  0  0  0
  5  6  1  0  0  0  0
  5 37  1  0  0  0  0
  5 41  1  6  0  0  0
  6  7  1  0  0  0  0
  6 42  1  0  0  0  0
  6 43  1  0  0  0  0
  7  8  1  0  0  0  0
  7 44  1  0  0  0  0
  7 45  1  0  0  0  0
  8 37  1  0  0  0  0
  8  9  1  0  0  0  0
  8 46  1  6  0  0  0
  9 10  1  0  0  0  0
  9 47  1  0  0  0  0
 10 11  2  0  0  0  0
 10 12  1  0  0  0  0
 12 13  1  0  0  0  0
 12 31  1  0  0  0  0
 12 48  1  0  0  0  0
 13 14  1  0  0  0  0
 13 21  1  0  0  0  0
 14 15  2  0  0  0  0
 14 16  1  0  0  0  0
 16 17  2  0  0  0  0
 16 20  1  0  0  0  0
 17 18  1  0  0  0  0
 17 49  1  0  0  0  0
 18 19  1  0  0  0  0
 19 20  2  0  0  0  0
 19 50  1  0  0  0  0
 21 22  1  0  0  0  0
 21 30  2  0  0  0  0
 22 23  2  0  0  0  0
 22 51  1  0  0  0  0
 23 24  1  0  0  0  0
 23 52  1  0  0  0  0
 24 25  1  0  0  0  0
 24 29  2  0  0  0  0
 25 26  1  0  0  0  0
 25 27  1  0  0  0  0
 25 28  1  0  0  0  0
 26 53  1  0  0  0  0
 26 54  1  0  0  0  0
 26 55  1  0  0  0  0
 27 56  1  0  0  0  0
 27 57  1  0  0  0  0
 27 58  1  0  0  0  0
 28 59  1  0  0  0  0
 28 60  1  0  0  0  0
 28 61  1  0  0  0  0
 29 30  1  0  0  0  0
 29 62  1  0  0  0  0
 30 63  1  0  0  0  0
 31 32  1  0  0  0  0
 31 36  2  0  0  0  0
 32 33  2  0  0  0  0
 32 64  1  0  0  0  0
 33 34  1  0  0  0  0
 33 65  1  0  0  0  0
 34 35  2  0  0  0  0
 34 66  1  0  0  0  0
 35 36  1  0  0  0  0
 36 67  1  0  0  0  0
 37 68  1  0  0  0  0
 37 69  1  0  0  0  0
M  END
$$$$
