
 OpenBabel07202414143D

 69 73  0  0  1  0  0  0  0  0999 V2000
    1.1250   -1.2598    2.6544 C   0  0  0  0  0  0  0  0  0  0  0  0
    2.4876   -0.9232    2.3473 N   0  0  0  0  0  0  0  0  0  0  0  0
    2.7932   -0.1888    1.2247 C   0  0  0  0  0  0  0  0  0  0  0  0
    1.9413    0.1251    0.4010 O   0  0  0  0  0  0  0  0  0  0  0  0
    4.2695    0.1618    1.0485 C   0  0  0  0  0  0  0  0  0  0  0  0
    4.9952    0.2900    2.3343 N   0  0  0  0  0  0  0  0  0  0  0  0
    4.5355    1.4317    3.1431 C   0  0  0  0  0  0  0  0  0  0  0  0
    5.0893    2.7852    2.7597 C   0  0  0  0  0  0  0  0  0  0  0  0
    4.3951    3.9364    3.1824 C   0  0  0  0  0  0  0  0  0  0  0  0
    4.8813    5.2129    2.9111 C   0  0  0  0  0  0  0  0  0  0  0  0
    6.0726    5.3531    2.2229 C   0  0  0  0  0  0  0  0  0  0  0  0
    6.6954    6.9204    1.8692 Cl  0  0  0  0  0  0  0  0  0  0  0  0
    6.7810    4.2291    1.8075 C   0  0  0  0  0  0  0  0  0  0  0  0
    6.3070    2.9240    2.0706 C   0  0  0  0  0  0  0  0  0  0  0  0
    7.0535    1.6855    1.5452 C   0  0  3  0  0  0  0  0  0  0  0  0
    8.5621    1.7119    1.9138 C   0  0  0  0  0  0  0  0  0  0  0  0
    9.3099    1.9787    0.6224 C   0  0  0  0  0  0  0  0  0  0  0  0
    8.3190    2.4240   -0.3187 N   0  0  0  0  0  0  0  0  0  0  0  0
    8.6559    3.0480   -1.5615 C   0  0  0  0  0  0  0  0  0  0  0  0
    8.0179    2.6871   -2.7495 C   0  0  0  0  0  0  0  0  0  0  0  0
    8.4049    3.0943   -3.9840 N   0  0  0  0  0  0  0  0  0  0  0  0
    9.4298    3.9685   -4.0399 C   0  0  0  0  0  0  0  0  0  0  0  0
   10.0431    4.5364   -2.9252 C   0  0  0  0  0  0  0  0  0  0  0  0
   10.9951    5.5692   -3.0636 C   0  0  0  0  0  0  0  0  0  0  0  0
   11.6115    6.1301   -1.9447 C   0  0  0  0  0  0  0  0  0  0  0  0
   11.2804    5.6648   -0.6837 C   0  0  0  0  0  0  0  0  0  0  0  0
   12.0046    6.1399    0.3819 O   0  0  0  0  0  0  0  0  0  0  0  0
   12.2464    5.1306    1.3842 C   0  0  0  0  0  0  0  0  0  0  0  0
   13.5574    5.4200    2.1336 C   0  0  0  0  0  0  0  0  0  0  0  0
   13.8793    4.4431    3.1997 N   0  0  0  0  0  0  0  0  0  0  0  0
   14.0658    3.0841    2.6848 C   0  0  0  0  0  0  0  0  0  0  0  0
   15.0977    4.8634    3.9012 C   0  0  0  0  0  0  0  0  0  0  0  0
   10.2443    4.7371   -0.5483 C   0  0  0  0  0  0  0  0  0  0  0  0
    9.6486    4.0758   -1.6526 C   0  0  0  0  0  0  0  0  0  0  0  0
    7.1068    1.7798   -0.0019 C   0  0  0  0  0  0  0  0  0  0  0  0
    6.2069    1.4870   -0.7709 O   0  0  0  0  0  0  0  0  0  0  0  0
    6.4511    0.3730    2.1187 C   0  0  0  0  0  0  0  0  0  0  0  0
    1.0689   -1.6196    3.6831 H   0  0  0  0  0  0  0  0  0  0  0  0
    0.7843   -2.0343    1.9623 H   0  0  0  0  0  0  0  0  0  0  0  0
    0.4913   -0.3735    2.5377 H   0  0  0  0  0  0  0  0  0  0  0  0
    3.2502   -1.1437    2.9803 H   0  0  0  0  0  0  0  0  0  0  0  0
    4.3037    1.0900    0.4765 H   0  0  0  0  0  0  0  0  0  0  0  0
    4.7078   -0.6548    0.4605 H   0  0  0  0  0  0  0  0  0  0  0  0
    4.8362    1.2484    4.1832 H   0  0  0  0  0  0  0  0  0  0  0  0
    3.4405    1.4784    3.1593 H   0  0  0  0  0  0  0  0  0  0  0  0
    3.4568    3.8347    3.7269 H   0  0  0  0  0  0  0  0  0  0  0  0
    4.3262    6.0895    3.2358 H   0  0  0  0  0  0  0  0  0  0  0  0
    7.6998    4.3850    1.2542 H   0  0  0  0  0  0  0  0  0  0  0  0
    8.9153    0.7579    2.3238 H   0  0  0  0  0  0  0  0  0  0  0  0
    8.7890    2.4721    2.6696 H   0  0  0  0  0  0  0  0  0  0  0  0
    9.7272    1.0411    0.2319 H   0  0  0  0  0  0  0  0  0  0  0  0
   10.1488    2.6485    0.7957 H   0  0  0  0  0  0  0  0  0  0  0  0
    7.1679    2.0146   -2.7734 H   0  0  0  0  0  0  0  0  0  0  0  0
    9.7425    4.2244   -5.0494 H   0  0  0  0  0  0  0  0  0  0  0  0
   11.2518    5.9526   -4.0494 H   0  0  0  0  0  0  0  0  0  0  0  0
   12.3476    6.9204   -2.0620 H   0  0  0  0  0  0  0  0  0  0  0  0
   12.3267    4.1449    0.9105 H   0  0  0  0  0  0  0  0  0  0  0  0
   11.4090    5.1288    2.0922 H   0  0  0  0  0  0  0  0  0  0  0  0
   13.4619    6.4181    2.5810 H   0  0  0  0  0  0  0  0  0  0  0  0
   14.3786    5.4922    1.4084 H   0  0  0  0  0  0  0  0  0  0  0  0
   13.1289    2.6767    2.2923 H   0  0  0  0  0  0  0  0  0  0  0  0
   14.3657    2.4034    3.4908 H   0  0  0  0  0  0  0  0  0  0  0  0
   14.8273    3.0385    1.8984 H   0  0  0  0  0  0  0  0  0  0  0  0
   14.9647    5.8529    4.3513 H   0  0  0  0  0  0  0  0  0  0  0  0
   15.9658    4.8990    3.2324 H   0  0  0  0  0  0  0  0  0  0  0  0
   15.3274    4.1749    4.7229 H   0  0  0  0  0  0  0  0  0  0  0  0
    9.8771    4.5541    0.4535 H   0  0  0  0  0  0  0  0  0  0  0  0
    6.8876    0.2135    3.1175 H   0  0  0  0  0  0  0  0  0  0  0  0
    6.7895   -0.4904    1.5312 H   0  0  0  0  0  0  0  0  0  0  0  0
  1  2  1  0  0  0  0
  1 38  1  0  0  0  0
  1 39  1  0  0  0  0
  1 40  1  0  0  0  0
  2  3  1  0  0  0  0
  2 41  1  0  0  0  0
  3  4  2  0  0  0  0
  3  5  1  0  0  0  0
  5  6  1  0  0  0  0
  5 42  1  0  0  0  0
  5 43  1  0  0  0  0
  6  7  1  0  0  0  0
  6 37  1  0  0  0  0
  7  8  1  0  0  0  0
  7 44  1  0  0  0  0
  7 45  1  0  0  0  0
  8  9  1  0  0  0  0
  8 14  2  0  0  0  0
  9 10  2  0  0  0  0
  9 46  1  0  0  0  0
 10 11  1  0  0  0  0
 10 47  1  0  0  0  0
 11 12  1  0  0  0  0
 11 13  2  0  0  0  0
 13 14  1  0  0  0  0
 13 48  1  0  0  0  0
 14 15  1  0  0  0  0
 15 16  1  0  0  0  0
 15 35  1  0  0  0  0
 15 37  1  0  0  0  0
 16 17  1  0  0  0  0
 16 49  1  0  0  0  0
 16 50  1  0  0  0  0
 17 18  1  0  0  0  0
 17 51  1  0  0  0  0
 17 52  1  0  0  0  0
 18 19  1  0  0  0  0
 18 35  1  0  0  0  0
 19 20  1  0  0  0  0
 19 34  2  0  0  0  0
 20 21  2  0  0  0  0
 20 53  1  0  0  0  0
 21 22  1  0  0  0  0
 22 23  2  0  0  0  0
 22 54  1  0  0  0  0
 23 24  1  0  0  0  0
 23 34  1  0  0  0  0
 24 25  2  0  0  0  0
 24 55  1  0  0  0  0
 25 26  1  0  0  0  0
 25 56  1  0  0  0  0
 26 27  1  0  0  0  0
 26 33  2  0  0  0  0
 27 28  1  0  0  0  0
 28 29  1  0  0  0  0
 28 57  1  0  0  0  0
 28 58  1  0  0  0  0
 29 30  1  0  0  0  0
 29 59  1  0  0  0  0
 29 60  1  0  0  0  0
 30 31  1  0  0  0  0
 30 32  1  0  0  0  0
 31 61  1  0  0  0  0
 31 62  1  0  0  0  0
 31 63  1  0  0  0  0
 32 64  1  0  0  0  0
 32 65  1  0  0  0  0
 32 66  1  0  0  0  0
 33 34  1  0  0  0  0
 33 67  1  0  0  0  0
 35 36  2  0  0  0  0
 37 68  1  0  0  0  0
 37 69  1  0  0  0  0
M  END
$$$$
