
 OpenBabel07202414143D

 58 62  0  0  0  0  0  0  0  0999 V2000
    0.3652    1.8353    1.1432 C   0  0  0  0  0  0  0  0  0  0  0  0
    1.7219    2.2083    0.9316 O   0  0  0  0  0  0  0  0  0  0  0  0
    2.6306    1.8052    1.8762 C   0  0  0  0  0  0  0  0  0  0  0  0
    2.5419    0.6835    2.7060 C   0  0  0  0  0  0  0  0  0  0  0  0
    1.4865   -0.1777    2.5775 O   0  0  0  0  0  0  0  0  0  0  0  0
    1.0913   -0.8721    3.7582 C   0  0  0  0  0  0  0  0  0  0  0  0
    3.5891    0.4308    3.5916 C   0  0  0  0  0  0  0  0  0  0  0  0
    4.7118    1.2875    3.6707 C   0  0  0  0  0  0  0  0  0  0  0  0
    5.7708    1.0927    4.5735 C   0  0  0  0  0  0  0  0  0  0  0  0
    5.7500   -0.0549    5.4041 N   0  0  0  0  0  0  0  0  0  0  0  0
    6.3658   -0.2007    6.6573 C   0  0  0  0  0  0  0  0  0  0  0  0
    6.8661   -1.4436    7.0562 C   0  0  0  0  0  0  0  0  0  0  0  0
    7.4207   -1.6025    8.3254 C   0  0  0  0  0  0  0  0  0  0  0  0
    8.0404   -3.1378    8.7937 Cl  0  0  0  0  0  0  0  0  0  0  0  0
    7.4541   -0.5381    9.2253 C   0  0  0  0  0  0  0  0  0  0  0  0
    6.9370    0.7068    8.8516 C   0  0  0  0  0  0  0  0  0  0  0  0
    6.8429    1.8459    9.8329 C   0  0  0  0  0  0  0  0  0  0  0  0
    8.1348    2.2275   10.5178 C   0  0  0  0  0  0  0  0  0  0  0  0
    8.1485    2.4332   11.7285 O   0  0  0  0  0  0  0  0  0  0  0  0
    9.2211    2.4284    9.6760 N   0  0  0  0  0  0  0  0  0  0  0  0
   10.4632    2.8757   10.1958 C   0  0  0  0  0  0  0  0  0  0  0  0
   10.9758    2.3205   11.3726 C   0  0  0  0  0  0  0  0  0  0  0  0
   12.1144    2.7183   11.9797 N   0  0  0  0  0  0  0  0  0  0  0  0
   12.7601    3.7504   11.4025 C   0  0  0  0  0  0  0  0  0  0  0  0
   12.3593    4.3824   10.2225 C   0  0  0  0  0  0  0  0  0  0  0  0
   13.0782    5.4733    9.7052 C   0  0  0  0  0  0  0  0  0  0  0  0
   12.6583    6.1130    8.5415 C   0  0  0  0  0  0  0  0  0  0  0  0
   11.5190    5.6679    7.8818 C   0  0  0  0  0  0  0  0  0  0  0  0
   10.7924    4.5869    8.3890 C   0  0  0  0  0  0  0  0  0  0  0  0
   11.1899    3.9191    9.5735 C   0  0  0  0  0  0  0  0  0  0  0  0
    6.4053    0.8640    7.5664 C   0  0  0  0  0  0  0  0  0  0  0  0
    6.7950    1.9512    4.6680 N   0  0  0  0  0  0  0  0  0  0  0  0
    6.7722    2.9810    3.8168 C   0  0  0  0  0  0  0  0  0  0  0  0
    8.0977    4.0478    3.8980 Cl  0  0  0  0  0  0  0  0  0  0  0  0
    5.8300    3.2584    2.9062 N   0  0  0  0  0  0  0  0  0  0  0  0
    4.7983    2.4108    2.8516 C   0  0  0  0  0  0  0  0  0  0  0  0
    3.7596    2.6408    1.9561 C   0  0  0  0  0  0  0  0  0  0  0  0
   -0.2570    2.4657    0.5025 H   0  0  0  0  0  0  0  0  0  0  0  0
    0.0534    2.0088    2.1795 H   0  0  0  0  0  0  0  0  0  0  0  0
    0.1933    0.7990    0.8375 H   0  0  0  0  0  0  0  0  0  0  0  0
    0.1421   -1.3725    3.5485 H   0  0  0  0  0  0  0  0  0  0  0  0
    0.9329   -0.1773    4.5903 H   0  0  0  0  0  0  0  0  0  0  0  0
    1.8146   -1.6488    4.0262 H   0  0  0  0  0  0  0  0  0  0  0  0
    3.5537   -0.4404    4.2364 H   0  0  0  0  0  0  0  0  0  0  0  0
    5.7507   -0.9010    4.8432 H   0  0  0  0  0  0  0  0  0  0  0  0
    6.8269   -2.2936    6.3811 H   0  0  0  0  0  0  0  0  0  0  0  0
    7.8631   -0.6906   10.2234 H   0  0  0  0  0  0  0  0  0  0  0  0
    6.1264    1.5523   10.6105 H   0  0  0  0  0  0  0  0  0  0  0  0
    6.4415    2.7487    9.3570 H   0  0  0  0  0  0  0  0  0  0  0  0
    9.0250    2.5894    8.6975 H   0  0  0  0  0  0  0  0  0  0  0  0
   10.4726    1.4957   11.8710 H   0  0  0  0  0  0  0  0  0  0  0  0
   13.6426    4.0793   11.9458 H   0  0  0  0  0  0  0  0  0  0  0  0
   13.9634    5.8426   10.2190 H   0  0  0  0  0  0  0  0  0  0  0  0
   13.2153    6.9630    8.1566 H   0  0  0  0  0  0  0  0  0  0  0  0
   11.1836    6.1705    6.9779 H   0  0  0  0  0  0  0  0  0  0  0  0
    9.8957    4.2930    7.8513 H   0  0  0  0  0  0  0  0  0  0  0  0
    5.9698    1.8199    7.2810 H   0  0  0  0  0  0  0  0  0  0  0  0
    3.8154    3.5105    1.3027 H   0  0  0  0  0  0  0  0  0  0  0  0
  1  2  1  0  0  0  0
  1 38  1  0  0  0  0
  1 39  1  0  0  0  0
  1 40  1  0  0  0  0
  2  3  1  0  0  0  0
  3  4  2  0  0  0  0
  3 37  1  0  0  0  0
  4  5  1  0  0  0  0
  4  7  1  0  0  0  0
  5  6  1  0  0  0  0
  6 41  1  0  0  0  0
  6 42  1  0  0  0  0
  6 43  1  0  0  0  0
  7  8  2  0  0  0  0
  7 44  1  0  0  0  0
  8  9  1  0  0  0  0
  8 36  1  0  0  0  0
  9 10  1  0  0  0  0
  9 32  2  0  0  0  0
 10 11  1  0  0  0  0
 10 45  1  0  0  0  0
 11 12  2  0  0  0  0
 11 31  1  0  0  0  0
 12 13  1  0  0  0  0
 12 46  1  0  0  0  0
 13 14  1  0  0  0  0
 13 15  2  0  0  0  0
 15 16  1  0  0  0  0
 15 47  1  0  0  0  0
 16 17  1  0  0  0  0
 16 31  2  0  0  0  0
 17 18  1  0  0  0  0
 17 48  1  0  0  0  0
 17 49  1  0  0  0  0
 18 19  2  0  0  0  0
 18 20  1  0  0  0  0
 20 21  1  0  0  0  0
 20 50  1  0  0  0  0
 21 22  2  0  0  0  0
 21 30  1  0  0  0  0
 22 23  1  0  0  0  0
 22 51  1  0  0  0  0
 23 24  2  0  0  0  0
 24 25  1  0  0  0  0
 24 52  1  0  0  0  0
 25 26  2  0  0  0  0
 25 30  1  0  0  0  0
 26 27  1  0  0  0  0
 26 53  1  0  0  0  0
 27 28  2  0  0  0  0
 27 54  1  0  0  0  0
 28 29  1  0  0  0  0
 28 55  1  0  0  0  0
 29 30  2  0  0  0  0
 29 56  1  0  0  0  0
 31 57  1  0  0  0  0
 32 33  1  0  0  0  0
 33 34  1  0  0  0  0
 33 35  2  0  0  0  0
 35 36  1  0  0  0  0
 36 37  2  0  0  0  0
 37 58  1  0  0  0  0
M  END
$$$$
