
 OpenBabel07202414183D

 53 57  0  0  1  0  0  0  0  0999 V2000
    9.0015   -3.7934   -3.6569 F   0  0  0  0  0  0  0  0  0  0  0  0
    8.5674   -2.9384   -2.7224 C   0  0  0  0  0  0  0  0  0  0  0  0
    9.4798   -2.1998   -1.9929 C   0  0  0  0  0  0  0  0  0  0  0  0
    9.0184   -1.3001   -1.0277 C   0  0  0  0  0  0  0  0  0  0  0  0
    7.6338   -1.1109   -0.7677 C   0  0  0  0  0  0  0  0  0  0  0  0
    7.0877   -0.2133    0.2025 C   0  0  0  0  0  0  0  0  0  0  0  0
    7.8419    0.7452    0.9455 N   0  0  0  0  0  0  0  0  0  0  0  0
    8.7694    1.5710    0.3348 C   0  0  0  0  0  0  0  0  0  0  0  0
    8.9584    1.5945   -0.8813 O   0  0  0  0  0  0  0  0  0  0  0  0
    9.6186    2.4320    1.2838 C   0  0  3  0  0  0  0  0  0  0  0  0
    9.2818    3.9265    1.2883 C   0  0  0  0  0  0  0  0  0  0  0  0
    9.6277    4.5703    0.0301 N   0  0  0  0  0  0  0  0  0  0  0  0
    8.5872    4.5856   -1.0113 C   0  0  0  0  0  0  0  0  0  0  0  0
    7.5605    5.7061   -0.9713 C   0  0  0  0  0  0  0  0  0  0  0  0
    6.3671    5.4845   -1.1802 O   0  0  0  0  0  0  0  0  0  0  0  0
    8.0789    6.9690   -0.8179 N   0  0  0  0  0  0  0  0  0  0  0  0
    7.2492    8.1237   -0.9444 C   0  0  0  0  0  0  0  0  0  0  0  0
    7.8011    9.4891   -0.6639 C   0  0  0  0  0  0  0  0  0  0  0  0
    6.7956    8.8821    0.2711 C   0  0  0  0  0  0  0  0  0  0  0  0
   10.9549    4.4584   -0.4091 C   0  0  0  0  0  0  0  0  0  0  0  0
   11.4281    5.1835   -1.2797 O   0  0  0  0  0  0  0  0  0  0  0  0
   11.7358    3.2956    0.1545 C   0  0  0  0  0  0  0  0  0  0  0  0
   13.0760    3.1168   -0.2046 C   0  0  0  0  0  0  0  0  0  0  0  0
   13.7092    1.8912    0.0425 C   0  0  0  0  0  0  0  0  0  0  0  0
   13.0054    0.8472    0.6408 C   0  0  0  0  0  0  0  0  0  0  0  0
   13.7023   -0.7201    0.7611 Cl  0  0  0  0  0  0  0  0  0  0  0  0
   11.7082    1.0483    1.0949 C   0  0  0  0  0  0  0  0  0  0  0  0
   11.0719    2.2803    0.8770 C   0  0  0  0  0  0  0  0  0  0  0  0
    5.7147   -0.2733    0.4374 C   0  0  0  0  0  0  0  0  0  0  0  0
    4.8506   -1.0584   -0.2398 N   0  0  0  0  0  0  0  0  0  0  0  0
    5.3814   -1.8359   -1.2078 C   0  0  0  0  0  0  0  0  0  0  0  0
    6.7398   -1.9193   -1.5008 C   0  0  0  0  0  0  0  0  0  0  0  0
    7.2081   -2.8089   -2.4875 C   0  0  0  0  0  0  0  0  0  0  0  0
   10.5436   -2.3128   -2.1813 H   0  0  0  0  0  0  0  0  0  0  0  0
    9.7692   -0.7498   -0.4731 H   0  0  0  0  0  0  0  0  0  0  0  0
    7.4055    1.1070    1.7856 H   0  0  0  0  0  0  0  0  0  0  0  0
    9.5005    2.0614    2.3101 H   0  0  0  0  0  0  0  0  0  0  0  0
    9.9072    4.4205    2.0505 H   0  0  0  0  0  0  0  0  0  0  0  0
    8.2418    4.1447    1.5469 H   0  0  0  0  0  0  0  0  0  0  0  0
    7.9913    3.6794   -0.8896 H   0  0  0  0  0  0  0  0  0  0  0  0
    9.0373    4.5499   -2.0084 H   0  0  0  0  0  0  0  0  0  0  0  0
    9.0899    7.0658   -0.8479 H   0  0  0  0  0  0  0  0  0  0  0  0
    6.5234    8.0435   -1.7540 H   0  0  0  0  0  0  0  0  0  0  0  0
    7.4784   10.2958   -1.3112 H   0  0  0  0  0  0  0  0  0  0  0  0
    8.8267    9.5674   -0.3260 H   0  0  0  0  0  0  0  0  0  0  0  0
    5.7881    9.2833    0.2664 H   0  0  0  0  0  0  0  0  0  0  0  0
    7.1317    8.5406    1.2422 H   0  0  0  0  0  0  0  0  0  0  0  0
   13.6158    3.9019   -0.7295 H   0  0  0  0  0  0  0  0  0  0  0  0
   14.7347    1.7367   -0.2823 H   0  0  0  0  0  0  0  0  0  0  0  0
   11.1607    0.2247    1.5490 H   0  0  0  0  0  0  0  0  0  0  0  0
    5.2381    0.3648    1.1757 H   0  0  0  0  0  0  0  0  0  0  0  0
    4.6510   -2.4306   -1.7531 H   0  0  0  0  0  0  0  0  0  0  0  0
    6.5237   -3.4172   -3.0715 H   0  0  0  0  0  0  0  0  0  0  0  0
  1  2  1  0  0  0  0
  2  3  1  0  0  0  0
  2 33  2  0  0  0  0
  3  4  2  0  0  0  0
  3 34  1  0  0  0  0
  4  5  1  0  0  0  0
  4 35  1  0  0  0  0
  5  6  1  0  0  0  0
  5 32  2  0  0  0  0
  6  7  1  0  0  0  0
  6 29  2  0  0  0  0
  7  8  1  0  0  0  0
  7 36  1  0  0  0  0
  8  9  2  0  0  0  0
  8 10  1  0  0  0  0
 10 11  1  0  0  0  0
 10 28  1  0  0  0  0
 10 37  1  0  0  0  0
 11 12  1  0  0  0  0
 11 38  1  0  0  0  0
 11 39  1  0  0  0  0
 12 13  1  0  0  0  0
 12 20  1  0  0  0  0
 13 14  1  0  0  0  0
 13 40  1  0  0  0  0
 13 41  1  0  0  0  0
 14 15  2  0  0  0  0
 14 16  1  0  0  0  0
 16 17  1  0  0  0  0
 16 42  1  0  0  0  0
 17 18  1  0  0  0  0
 17 19  1  0  0  0  0
 17 43  1  0  0  0  0
 18 19  1  0  0  0  0
 18 44  1  0  0  0  0
 18 45  1  0  0  0  0
 19 46  1  0  0  0  0
 19 47  1  0  0  0  0
 20 21  2  0  0  0  0
 20 22  1  0  0  0  0
 22 23  1  0  0  0  0
 22 28  2  0  0  0  0
 23 24  2  0  0  0  0
 23 48  1  0  0  0  0
 24 25  1  0  0  0  0
 24 49  1  0  0  0  0
 25 26  1  0  0  0  0
 25 27  2  0  0  0  0
 27 28  1  0  0  0  0
 27 50  1  0  0  0  0
 29 30  1  0  0  0  0
 29 51  1  0  0  0  0
 30 31  2  0  0  0  0
 31 32  1  0  0  0  0
 31 52  1  0  0  0  0
 32 33  1  0  0  0  0
 33 53  1  0  0  0  0
M  END
$$$$
