
 OpenBabel07202414173D

 56 60  0  0  1  0  0  0  0  0999 V2000
    1.0796    0.2172    0.1050 Cl  0  0  0  0  0  0  0  0  0  0  0  0
    2.7945    0.0916    0.1524 C   0  0  0  0  0  0  0  0  0  0  0  0
    3.5799    1.2303    0.0160 C   0  0  0  0  0  0  0  0  0  0  0  0
    4.9707    1.1170    0.0527 C   0  0  0  0  0  0  0  0  0  0  0  0
    5.5777   -0.1306    0.2233 C   0  0  0  0  0  0  0  0  0  0  0  0
    4.7970   -1.2857    0.3336 C   0  0  0  0  0  0  0  0  0  0  0  0
    3.3916   -1.1567    0.3197 C   0  0  0  0  0  0  0  0  0  0  0  0
    5.4529   -2.6522    0.5220 C   0  0  3  0  0  0  0  0  0  0  0  0
    4.8567   -3.7027   -0.4756 C   0  0  0  0  0  0  0  0  0  0  0  0
    5.0202   -3.3257   -1.8918 N   0  0  0  0  0  0  0  0  0  0  0  0
    5.2184   -4.2672   -2.8828 C   0  0  0  0  0  0  0  0  0  0  0  0
    5.2718   -5.4718   -2.6519 O   0  0  0  0  0  0  0  0  0  0  0  0
    5.4070   -3.7183   -4.2872 C   0  0  0  0  0  0  0  0  0  0  0  0
    6.8094   -3.6025   -4.6395 N   0  0  0  0  0  0  0  0  0  0  0  0
    7.4610   -2.4601   -5.0173 C   0  0  0  0  0  0  0  0  0  0  0  0
    8.7546   -2.8563   -5.2694 C   0  0  0  0  0  0  0  0  0  0  0  0
    8.8957   -4.2045   -5.0736 N   0  0  0  0  0  0  0  0  0  0  0  0
    7.7064   -4.6313   -4.7113 C   0  0  0  0  0  0  0  0  0  0  0  0
    5.2117   -3.1294    2.0064 C   0  0  0  0  0  0  0  0  0  0  0  0
    4.7170   -4.2201    2.2634 O   0  0  0  0  0  0  0  0  0  0  0  0
    5.6175   -2.2012    2.9614 N   0  0  0  0  0  0  0  0  0  0  0  0
    5.4410   -2.2072    4.3724 C   0  0  0  0  0  0  0  0  0  0  0  0
    4.6766   -3.1560    5.0449 C   0  0  0  0  0  0  0  0  0  0  0  0
    4.3210   -3.0563    6.3494 N   0  0  0  0  0  0  0  0  0  0  0  0
    4.7965   -1.9933    7.0340 C   0  0  0  0  0  0  0  0  0  0  0  0
    5.6787   -1.0490    6.5144 C   0  0  0  0  0  0  0  0  0  0  0  0
    6.2341   -0.0412    7.3290 C   0  0  0  0  0  0  0  0  0  0  0  0
    7.1494    0.8719    6.8115 C   0  0  0  0  0  0  0  0  0  0  0  0
    7.4918    0.8085    5.4696 C   0  0  0  0  0  0  0  0  0  0  0  0
    6.9255   -0.1732    4.6505 C   0  0  0  0  0  0  0  0  0  0  0  0
    6.0119   -1.1437    5.1441 C   0  0  0  0  0  0  0  0  0  0  0  0
    6.9685   -2.5716    0.2202 C   0  0  0  0  0  0  0  0  0  0  0  0
    7.6142   -1.2886    0.6955 C   0  0  0  0  0  0  0  0  0  0  0  0
    6.9407   -0.1109    0.2597 O   0  0  0  0  0  0  0  0  0  0  0  0
    3.1167    2.2057   -0.1102 H   0  0  0  0  0  0  0  0  0  0  0  0
    5.5834    2.0122   -0.0351 H   0  0  0  0  0  0  0  0  0  0  0  0
    2.7495   -2.0278    0.4488 H   0  0  0  0  0  0  0  0  0  0  0  0
    3.7823   -3.8534   -0.3217 H   0  0  0  0  0  0  0  0  0  0  0  0
    5.3297   -4.6791   -0.3157 H   0  0  0  0  0  0  0  0  0  0  0  0
    4.8594   -2.3593   -2.1528 H   0  0  0  0  0  0  0  0  0  0  0  0
    4.9365   -2.7353   -4.3929 H   0  0  0  0  0  0  0  0  0  0  0  0
    4.9392   -4.3958   -5.0103 H   0  0  0  0  0  0  0  0  0  0  0  0
    6.9781   -1.4956   -5.0822 H   0  0  0  0  0  0  0  0  0  0  0  0
    9.5895   -2.2456   -5.5891 H   0  0  0  0  0  0  0  0  0  0  0  0
    7.4467   -5.6597   -4.4888 H   0  0  0  0  0  0  0  0  0  0  0  0
    5.9215   -1.3076    2.6076 H   0  0  0  0  0  0  0  0  0  0  0  0
    4.2778   -4.0379    4.5548 H   0  0  0  0  0  0  0  0  0  0  0  0
    4.4425   -1.9247    8.0603 H   0  0  0  0  0  0  0  0  0  0  0  0
    5.9805    0.0186    8.3860 H   0  0  0  0  0  0  0  0  0  0  0  0
    7.6050    1.6204    7.4553 H   0  0  0  0  0  0  0  0  0  0  0  0
    8.2122    1.5112    5.0557 H   0  0  0  0  0  0  0  0  0  0  0  0
    7.2555   -0.1820    3.6187 H   0  0  0  0  0  0  0  0  0  0  0  0
    7.1376   -2.6021   -0.8632 H   0  0  0  0  0  0  0  0  0  0  0  0
    7.4945   -3.4365    0.6413 H   0  0  0  0  0  0  0  0  0  0  0  0
    8.6343   -1.2352    0.3000 H   0  0  0  0  0  0  0  0  0  0  0  0
    7.7320   -1.2644    1.7796 H   0  0  0  0  0  0  0  0  0  0  0  0
  1  2  1  0  0  0  0
  2  3  1  0  0  0  0
  2  7  2  0  0  0  0
  3  4  2  0  0  0  0
  3 35  1  0  0  0  0
  4  5  1  0  0  0  0
  4 36  1  0  0  0  0
  5  6  2  0  0  0  0
  5 34  1  0  0  0  0
  6  7  1  0  0  0  0
  6  8  1  0  0  0  0
  7 37  1  0  0  0  0
  8  9  1  0  0  0  0
  8 19  1  0  0  0  0
  8 32  1  0  0  0  0
  9 10  1  0  0  0  0
  9 38  1  0  0  0  0
  9 39  1  0  0  0  0
 10 11  1  0  0  0  0
 10 40  1  0  0  0  0
 11 12  2  0  0  0  0
 11 13  1  0  0  0  0
 13 14  1  0  0  0  0
 13 41  1  0  0  0  0
 13 42  1  0  0  0  0
 14 15  1  0  0  0  0
 14 18  1  0  0  0  0
 15 16  2  0  0  0  0
 15 43  1  0  0  0  0
 16 17  1  0  0  0  0
 16 44  1  0  0  0  0
 17 18  2  0  0  0  0
 18 45  1  0  0  0  0
 19 20  2  0  0  0  0
 19 21  1  0  0  0  0
 21 22  1  0  0  0  0
 21 46  1  0  0  0  0
 22 23  1  0  0  0  0
 22 31  2  0  0  0  0
 23 24  2  0  0  0  0
 23 47  1  0  0  0  0
 24 25  1  0  0  0  0
 25 26  2  0  0  0  0
 25 48  1  0  0  0  0
 26 27  1  0  0  0  0
 26 31  1  0  0  0  0
 27 28  2  0  0  0  0
 27 49  1  0  0  0  0
 28 29  1  0  0  0  0
 28 50  1  0  0  0  0
 29 30  2  0  0  0  0
 29 51  1  0  0  0  0
 30 31  1  0  0  0  0
 30 52  1  0  0  0  0
 32 33  1  0  0  0  0
 32 53  1  0  0  0  0
 32 54  1  0  0  0  0
 33 34  1  0  0  0  0
 33 55  1  0  0  0  0
 33 56  1  0  0  0  0
M  END
$$$$
