
 OpenBabel07202414203D

 51 54  0  0  0  0  0  0  0  0999 V2000
    3.8705   -1.8441    2.3896 O   0  5  0  0  0  0  0  0  0  0  0  0
    3.0750   -0.9041    2.5785 N   0  3  0  0  0  0  0  0  0  0  0  0
    1.8447   -1.0298    2.6143 O   0  0  0  0  0  0  0  0  0  0  0  0
    3.6386    0.4301    2.7976 C   0  0  0  0  0  0  0  0  0  0  0  0
    5.0298    0.6067    2.8044 C   0  0  0  0  0  0  0  0  0  0  0  0
    5.5618    1.8752    3.0427 C   0  0  0  0  0  0  0  0  0  0  0  0
    4.7197    2.9741    3.2745 C   0  0  0  0  0  0  0  0  0  0  0  0
    5.2967    4.3203    3.6601 C   0  0  0  0  0  0  0  0  0  0  0  0
    4.9806    5.3480    2.6662 N   0  0  0  0  0  0  0  0  0  0  0  0
    5.3343    6.6783    2.9681 C   0  0  0  0  0  0  0  0  0  0  0  0
    5.6091    7.5899    1.9229 C   0  0  0  0  0  0  0  0  0  0  0  0
    5.9102    8.9444    2.1794 C   0  0  0  0  0  0  0  0  0  0  0  0
    6.1271    9.9870    1.1010 C   0  0  0  0  0  0  0  0  0  0  0  0
    6.8075    9.5507   -0.1828 C   0  0  0  0  0  0  0  0  0  0  0  0
    6.1798    9.3998   -1.2288 O   0  0  0  0  0  0  0  0  0  0  0  0
    8.1755    9.3818   -0.0505 N   0  0  0  0  0  0  0  0  0  0  0  0
    9.0086    9.0415   -1.1467 C   0  0  0  0  0  0  0  0  0  0  0  0
    9.7623    7.8731   -1.0406 C   0  0  0  0  0  0  0  0  0  0  0  0
   10.6613    7.4526   -1.9532 N   0  0  0  0  0  0  0  0  0  0  0  0
   10.9140    8.3068   -2.9664 C   0  0  0  0  0  0  0  0  0  0  0  0
   10.3244    9.5635   -3.1112 C   0  0  0  0  0  0  0  0  0  0  0  0
   10.8158   10.4838   -4.0543 C   0  0  0  0  0  0  0  0  0  0  0  0
   10.2248   11.7348   -4.2010 C   0  0  0  0  0  0  0  0  0  0  0  0
    9.0868   12.0421   -3.4661 C   0  0  0  0  0  0  0  0  0  0  0  0
    8.6132   11.1474   -2.4984 C   0  0  0  0  0  0  0  0  0  0  0  0
    9.2639    9.9135   -2.2414 C   0  0  0  0  0  0  0  0  0  0  0  0
    5.8726    9.3924    3.5095 C   0  0  0  0  0  0  0  0  0  0  0  0
    5.5501    8.5205    4.5410 C   0  0  0  0  0  0  0  0  0  0  0  0
    5.4516    9.1063    6.1569 Cl  0  0  0  0  0  0  0  0  0  0  0  0
    5.2737    7.1819    4.2744 C   0  0  0  0  0  0  0  0  0  0  0  0
    3.3288    2.7848    3.2480 C   0  0  0  0  0  0  0  0  0  0  0  0
    2.7824    1.5180    3.0118 C   0  0  0  0  0  0  0  0  0  0  0  0
    5.7021   -0.2333    2.6452 H   0  0  0  0  0  0  0  0  0  0  0  0
    6.6435    1.9932    3.0707 H   0  0  0  0  0  0  0  0  0  0  0  0
    6.3854    4.2460    3.7732 H   0  0  0  0  0  0  0  0  0  0  0  0
    4.8803    4.5518    4.6466 H   0  0  0  0  0  0  0  0  0  0  0  0
    5.2763    5.0707    1.7331 H   0  0  0  0  0  0  0  0  0  0  0  0
    5.5655    7.2383    0.8923 H   0  0  0  0  0  0  0  0  0  0  0  0
    6.7330   10.8087    1.5113 H   0  0  0  0  0  0  0  0  0  0  0  0
    5.1559   10.4242    0.8389 H   0  0  0  0  0  0  0  0  0  0  0  0
    8.4499    9.0046    0.8508 H   0  0  0  0  0  0  0  0  0  0  0  0
    9.6506    7.2079   -0.1898 H   0  0  0  0  0  0  0  0  0  0  0  0
   11.6495    7.9476   -3.6824 H   0  0  0  0  0  0  0  0  0  0  0  0
   11.7020   10.2491   -4.6416 H   0  0  0  0  0  0  0  0  0  0  0  0
   10.6484   12.4618   -4.8893 H   0  0  0  0  0  0  0  0  0  0  0  0
    8.5794   12.9906   -3.6261 H   0  0  0  0  0  0  0  0  0  0  0  0
    7.7272   11.4302   -1.9368 H   0  0  0  0  0  0  0  0  0  0  0  0
    6.0524   10.4412    3.7410 H   0  0  0  0  0  0  0  0  0  0  0  0
    4.9765    6.5547    5.1073 H   0  0  0  0  0  0  0  0  0  0  0  0
    2.6634    3.6282    3.4300 H   0  0  0  0  0  0  0  0  0  0  0  0
    1.7015    1.3957    3.0174 H   0  0  0  0  0  0  0  0  0  0  0  0
  1  2  1  0  0  0  0
  2  3  2  0  0  0  0
  2  4  1  0  0  0  0
  4  5  2  0  0  0  0
  4 32  1  0  0  0  0
  5  6  1  0  0  0  0
  5 33  1  0  0  0  0
  6  7  2  0  0  0  0
  6 34  1  0  0  0  0
  7  8  1  0  0  0  0
  7 31  1  0  0  0  0
  8  9  1  0  0  0  0
  8 35  1  0  0  0  0
  8 36  1  0  0  0  0
  9 10  1  0  0  0  0
  9 37  1  0  0  0  0
 10 11  2  0  0  0  0
 10 30  1  0  0  0  0
 11 12  1  0  0  0  0
 11 38  1  0  0  0  0
 12 13  1  0  0  0  0
 12 27  2  0  0  0  0
 13 14  1  0  0  0  0
 13 39  1  0  0  0  0
 13 40  1  0  0  0  0
 14 15  2  0  0  0  0
 14 16  1  0  0  0  0
 16 17  1  0  0  0  0
 16 41  1  0  0  0  0
 17 18  2  0  0  0  0
 17 26  1  0  0  0  0
 18 19  1  0  0  0  0
 18 42  1  0  0  0  0
 19 20  2  0  0  0  0
 20 21  1  0  0  0  0
 20 43  1  0  0  0  0
 21 22  2  0  0  0  0
 21 26  1  0  0  0  0
 22 23  1  0  0  0  0
 22 44  1  0  0  0  0
 23 24  2  0  0  0  0
 23 45  1  0  0  0  0
 24 25  1  0  0  0  0
 24 46  1  0  0  0  0
 25 26  2  0  0  0  0
 25 47  1  0  0  0  0
 27 28  1  0  0  0  0
 27 48  1  0  0  0  0
 28 29  1  0  0  0  0
 28 30  2  0  0  0  0
 30 49  1  0  0  0  0
 31 32  2  0  0  0  0
 31 50  1  0  0  0  0
 32 51  1  0  0  0  0
M  CHG  2   1  -1   2   1
M  END
$$$$
