
 OpenBabel07202414193D

 39 42  0  0  1  0  0  0  0  0999 V2000
    3.3790    0.6643   -2.1682 F   0  0  0  0  0  0  0  0  0  0  0  0
    3.5635    0.3174   -0.8879 C   0  0  0  0  0  0  0  0  0  0  0  0
    3.4168    1.2766    0.1005 C   0  0  0  0  0  0  0  0  0  0  0  0
    3.5845    0.9026    1.4279 C   0  0  0  0  0  0  0  0  0  0  0  0
    3.8976   -0.4291    1.7629 C   0  0  0  0  0  0  0  0  0  0  0  0
    4.0286   -0.7964    3.1009 C   0  0  0  0  0  0  0  0  0  0  0  0
    4.2943   -2.0395    3.5284 N   0  0  0  0  0  0  0  0  0  0  0  0
    4.4941   -2.9795    2.5697 C   0  0  0  0  0  0  0  0  0  0  0  0
    4.4544   -2.7477    1.1917 C   0  0  0  0  0  0  0  0  0  0  0  0
    4.8260   -3.7503    0.2397 N   0  0  0  0  0  0  0  0  0  0  0  0
    5.4298   -4.9822    0.5216 C   0  0  0  0  0  0  0  0  0  0  0  0
    5.5684   -5.4636    1.6496 O   0  0  0  0  0  0  0  0  0  0  0  0
    6.0193   -5.6782   -0.7187 C   0  0  1  0  0  0  0  0  0  0  0  0
    7.3333   -4.9547   -1.0695 C   0  0  0  0  0  0  0  0  0  0  0  0
    8.5871   -5.7889   -0.8557 C   0  0  0  0  0  0  0  0  0  0  0  0
    8.4848   -7.1103   -1.3637 O   0  0  0  0  0  0  0  0  0  0  0  0
    7.4202   -7.7954   -0.8538 C   0  0  0  0  0  0  0  0  0  0  0  0
    7.6020   -9.1718   -0.7103 C   0  0  0  0  0  0  0  0  0  0  0  0
    6.5243   -9.9707   -0.3609 C   0  0  0  0  0  0  0  0  0  0  0  0
    6.7150  -11.2937   -0.2381 F   0  0  0  0  0  0  0  0  0  0  0  0
    5.2654   -9.4082   -0.1781 C   0  0  0  0  0  0  0  0  0  0  0  0
    3.8982  -10.4125    0.1128 Cl  0  0  0  0  0  0  0  0  0  0  0  0
    5.0979   -8.0189   -0.2752 C   0  0  0  0  0  0  0  0  0  0  0  0
    6.1876   -7.1837   -0.5888 C   0  0  0  0  0  0  0  0  0  0  0  0
    4.0869   -1.4266    0.7648 C   0  0  0  0  0  0  0  0  0  0  0  0
    3.8982   -1.0052   -0.5764 C   0  0  0  0  0  0  0  0  0  0  0  0
    3.1666    2.2990   -0.1636 H   0  0  0  0  0  0  0  0  0  0  0  0
    3.4637    1.6571    2.2044 H   0  0  0  0  0  0  0  0  0  0  0  0
    3.9095   -0.0661    3.8990 H   0  0  0  0  0  0  0  0  0  0  0  0
    4.6931   -3.9588    2.9905 H   0  0  0  0  0  0  0  0  0  0  0  0
    4.7703   -3.4860   -0.7332 H   0  0  0  0  0  0  0  0  0  0  0  0
    5.3115   -5.5162   -1.5438 H   0  0  0  0  0  0  0  0  0  0  0  0
    7.4523   -4.0240   -0.5024 H   0  0  0  0  0  0  0  0  0  0  0  0
    7.2841   -4.6594   -2.1213 H   0  0  0  0  0  0  0  0  0  0  0  0
    8.8813   -5.8304    0.1987 H   0  0  0  0  0  0  0  0  0  0  0  0
    9.4156   -5.3131   -1.3951 H   0  0  0  0  0  0  0  0  0  0  0  0
    8.5738   -9.6227   -0.8833 H   0  0  0  0  0  0  0  0  0  0  0  0
    4.1079   -7.5957   -0.1186 H   0  0  0  0  0  0  0  0  0  0  0  0
    3.9804   -1.6920   -1.4113 H   0  0  0  0  0  0  0  0  0  0  0  0
  1  2  1  0  0  0  0
  2  3  1  0  0  0  0
  2 26  2  0  0  0  0
  3  4  2  0  0  0  0
  3 27  1  0  0  0  0
  4  5  1  0  0  0  0
  4 28  1  0  0  0  0
  5  6  1  0  0  0  0
  5 25  2  0  0  0  0
  6  7  2  0  0  0  0
  6 29  1  0  0  0  0
  7  8  1  0  0  0  0
  8  9  2  0  0  0  0
  8 30  1  0  0  0  0
  9 10  1  0  0  0  0
  9 25  1  0  0  0  0
 10 11  1  0  0  0  0
 10 31  1  0  0  0  0
 11 12  2  0  0  0  0
 11 13  1  0  0  0  0
 13 14  1  0  0  0  0
 13 24  1  0  0  0  0
 13 32  1  6  0  0  0
 14 15  1  0  0  0  0
 14 33  1  0  0  0  0
 14 34  1  0  0  0  0
 15 16  1  0  0  0  0
 15 35  1  0  0  0  0
 15 36  1  0  0  0  0
 16 17  1  0  0  0  0
 17 18  1  0  0  0  0
 17 24  2  0  0  0  0
 18 19  2  0  0  0  0
 18 37  1  0  0  0  0
 19 20  1  0  0  0  0
 19 21  1  0  0  0  0
 21 22  1  0  0  0  0
 21 23  2  0  0  0  0
 23 24  1  0  0  0  0
 23 38  1  0  0  0  0
 25 26  1  0  0  0  0
 26 39  1  0  0  0  0
M  END
$$$$
