
 OpenBabel07202414143D

 43 46  0  0  1  0  0  0  0  0999 V2000
    1.2196    0.0408   -0.5878 C   0  0  0  0  0  0  0  0  0  0  0  0
    2.5304   -0.1454   -0.0672 O   0  0  0  0  0  0  0  0  0  0  0  0
    2.9355    0.7291    1.0119 C   0  0  3  0  0  0  0  0  0  0  0  0
    2.0543    0.5815    2.2702 C   0  0  0  0  0  0  0  0  0  0  0  0
    0.8382    1.4943    2.2640 C   0  0  0  0  0  0  0  0  0  0  0  0
    1.1376    2.8627    2.0228 O   0  0  0  0  0  0  0  0  0  0  0  0
    2.0716    3.1226    1.0637 C   0  0  0  0  0  0  0  0  0  0  0  0
    2.9729    2.1798    0.5527 C   0  0  0  0  0  0  0  0  0  0  0  0
    3.9181    2.6106   -0.3986 C   0  0  0  0  0  0  0  0  0  0  0  0
    3.9637    3.9461   -0.8046 C   0  0  0  0  0  0  0  0  0  0  0  0
    3.0525    4.8685   -0.3031 C   0  0  0  0  0  0  0  0  0  0  0  0
    2.1046    4.4526    0.6297 C   0  0  0  0  0  0  0  0  0  0  0  0
    5.1640    4.4572   -1.9259 Cl  0  0  0  0  0  0  0  0  0  0  0  0
    4.3924    0.2700    1.4452 C   0  0  0  0  0  0  0  0  0  0  0  0
    4.9690    0.8297    2.3757 O   0  0  0  0  0  0  0  0  0  0  0  0
    4.9304   -0.7704    0.6910 N   0  0  0  0  0  0  0  0  0  0  0  0
    6.1834   -1.4313    0.8986 C   0  0  0  0  0  0  0  0  0  0  0  0
    7.0620   -1.0569    1.9205 C   0  0  0  0  0  0  0  0  0  0  0  0
    8.2205   -1.6872    2.2312 N   0  0  0  0  0  0  0  0  0  0  0  0
    8.5404   -2.7577    1.4846 C   0  0  0  0  0  0  0  0  0  0  0  0
    7.7852   -3.2233    0.4138 C   0  0  0  0  0  0  0  0  0  0  0  0
    6.5829   -2.5394    0.0832 C   0  0  0  0  0  0  0  0  0  0  0  0
    5.8838   -3.0287   -1.0514 C   0  0  0  0  0  0  0  0  0  0  0  0
    6.3375   -4.1362   -1.7860 C   0  0  0  0  0  0  0  0  0  0  0  0
    7.4979   -4.8009   -1.4110 C   0  0  0  0  0  0  0  0  0  0  0  0
    8.2224   -4.3443   -0.3179 C   0  0  0  0  0  0  0  0  0  0  0  0
    1.1184   -0.5800   -1.4821 H   0  0  0  0  0  0  0  0  0  0  0  0
    1.0332    1.0780   -0.8801 H   0  0  0  0  0  0  0  0  0  0  0  0
    0.4667   -0.3034    0.1248 H   0  0  0  0  0  0  0  0  0  0  0  0
    2.6326    0.8568    3.1627 H   0  0  0  0  0  0  0  0  0  0  0  0
    1.7371   -0.4583    2.4066 H   0  0  0  0  0  0  0  0  0  0  0  0
    0.3645    1.4510    3.2525 H   0  0  0  0  0  0  0  0  0  0  0  0
    0.0660    1.1788    1.5582 H   0  0  0  0  0  0  0  0  0  0  0  0
    4.6420    1.9096   -0.8084 H   0  0  0  0  0  0  0  0  0  0  0  0
    3.0802    5.9071   -0.6197 H   0  0  0  0  0  0  0  0  0  0  0  0
    1.3903    5.1701    1.0292 H   0  0  0  0  0  0  0  0  0  0  0  0
    4.3123   -1.1184   -0.0354 H   0  0  0  0  0  0  0  0  0  0  0  0
    6.8793   -0.2069    2.5666 H   0  0  0  0  0  0  0  0  0  0  0  0
    9.4668   -3.2458    1.7789 H   0  0  0  0  0  0  0  0  0  0  0  0
    4.9792   -2.5420   -1.4022 H   0  0  0  0  0  0  0  0  0  0  0  0
    5.7832   -4.4785   -2.6563 H   0  0  0  0  0  0  0  0  0  0  0  0
    7.8453   -5.6652   -1.9730 H   0  0  0  0  0  0  0  0  0  0  0  0
    9.1341   -4.8682   -0.0349 H   0  0  0  0  0  0  0  0  0  0  0  0
  1  2  1  0  0  0  0
  1 27  1  0  0  0  0
  1 28  1  0  0  0  0
  1 29  1  0  0  0  0
  2  3  1  0  0  0  0
  3  4  1  0  0  0  0
  3  8  1  0  0  0  0
  3 14  1  0  0  0  0
  4  5  1  0  0  0  0
  4 30  1  0  0  0  0
  4 31  1  0  0  0  0
  5  6  1  0  0  0  0
  5 32  1  0  0  0  0
  5 33  1  0  0  0  0
  6  7  1  0  0  0  0
  7  8  1  0  0  0  0
  7 12  2  0  0  0  0
  8  9  2  0  0  0  0
  9 10  1  0  0  0  0
  9 34  1  0  0  0  0
 10 11  2  0  0  0  0
 10 13  1  0  0  0  0
 11 12  1  0  0  0  0
 11 35  1  0  0  0  0
 12 36  1  0  0  0  0
 14 15  2  0  0  0  0
 14 16  1  0  0  0  0
 16 17  1  0  0  0  0
 16 37  1  0  0  0  0
 17 18  1  0  0  0  0
 17 22  2  0  0  0  0
 18 19  2  0  0  0  0
 18 38  1  0  0  0  0
 19 20  1  0  0  0  0
 20 21  2  0  0  0  0
 20 39  1  0  0  0  0
 21 22  1  0  0  0  0
 21 26  1  0  0  0  0
 22 23  1  0  0  0  0
 23 24  2  0  0  0  0
 23 40  1  0  0  0  0
 24 25  1  0  0  0  0
 24 41  1  0  0  0  0
 25 26  2  0  0  0  0
 25 42  1  0  0  0  0
 26 43  1  0  0  0  0
M  END
$$$$
