
 OpenBabel07202414133D

 43 45  0  0  0  0  0  0  0  0999 V2000
    1.4483    1.2872   -0.0702 C   0  0  0  0  0  0  0  0  0  0  0  0
    2.5644    0.3610   -0.5213 C   0  0  0  0  0  0  0  0  0  0  0  0
    3.6940    0.2788    0.5089 C   0  0  0  0  0  0  0  0  0  0  0  0
    4.8038   -0.6442    0.0588 C   0  0  0  0  0  0  0  0  0  0  0  0
    5.1530   -1.7599    0.8295 C   0  0  0  0  0  0  0  0  0  0  0  0
    6.1717   -2.6103    0.4027 C   0  0  0  0  0  0  0  0  0  0  0  0
    6.6023   -3.9740    1.3611 Cl  0  0  0  0  0  0  0  0  0  0  0  0
    6.8494   -2.3686   -0.7936 C   0  0  0  0  0  0  0  0  0  0  0  0
    6.5233   -1.2548   -1.5772 C   0  0  0  0  0  0  0  0  0  0  0  0
    7.2901   -0.9610   -2.8449 C   0  0  0  0  0  0  0  0  0  0  0  0
    6.4283   -0.8372   -4.0899 C   0  0  0  0  0  0  0  0  0  0  0  0
    6.1897    0.2591   -4.5914 O   0  0  0  0  0  0  0  0  0  0  0  0
    5.9485   -2.0443   -4.5633 N   0  0  0  0  0  0  0  0  0  0  0  0
    5.1692   -2.1542   -5.7429 C   0  0  0  0  0  0  0  0  0  0  0  0
    5.4896   -1.4192   -6.8895 C   0  0  0  0  0  0  0  0  0  0  0  0
    4.8259   -1.4992   -8.0634 N   0  0  0  0  0  0  0  0  0  0  0  0
    3.7587   -2.3291   -8.0878 C   0  0  0  0  0  0  0  0  0  0  0  0
    3.3215   -3.0946   -7.0063 C   0  0  0  0  0  0  0  0  0  0  0  0
    2.1703   -3.8946   -7.0949 C   0  0  0  0  0  0  0  0  0  0  0  0
    1.7246   -4.6249   -5.9959 C   0  0  0  0  0  0  0  0  0  0  0  0
    2.4294   -4.5710   -4.8005 C   0  0  0  0  0  0  0  0  0  0  0  0
    3.5814   -3.7877   -4.7015 C   0  0  0  0  0  0  0  0  0  0  0  0
    4.0561   -3.0266   -5.7976 C   0  0  0  0  0  0  0  0  0  0  0  0
    5.5115   -0.3902   -1.1304 C   0  0  0  0  0  0  0  0  0  0  0  0
    0.6766    1.3475   -0.8444 H   0  0  0  0  0  0  0  0  0  0  0  0
    1.8267    2.2973    0.1108 H   0  0  0  0  0  0  0  0  0  0  0  0
    0.9812    0.9214    0.8504 H   0  0  0  0  0  0  0  0  0  0  0  0
    2.9474    0.7252   -1.4832 H   0  0  0  0  0  0  0  0  0  0  0  0
    2.1541   -0.6398   -0.7057 H   0  0  0  0  0  0  0  0  0  0  0  0
    3.2834   -0.0692    1.4648 H   0  0  0  0  0  0  0  0  0  0  0  0
    4.1173    1.2736    0.6980 H   0  0  0  0  0  0  0  0  0  0  0  0
    4.6356   -1.9653    1.7654 H   0  0  0  0  0  0  0  0  0  0  0  0
    7.6481   -3.0417   -1.0971 H   0  0  0  0  0  0  0  0  0  0  0  0
    8.0403   -1.7379   -3.0354 H   0  0  0  0  0  0  0  0  0  0  0  0
    7.8432   -0.0230   -2.7160 H   0  0  0  0  0  0  0  0  0  0  0  0
    5.8852   -2.7962   -3.8908 H   0  0  0  0  0  0  0  0  0  0  0  0
    6.3448   -0.7482   -6.9127 H   0  0  0  0  0  0  0  0  0  0  0  0
    3.2335   -2.3480   -9.0388 H   0  0  0  0  0  0  0  0  0  0  0  0
    1.5988   -3.9368   -8.0209 H   0  0  0  0  0  0  0  0  0  0  0  0
    0.8194   -5.2218   -6.0685 H   0  0  0  0  0  0  0  0  0  0  0  0
    2.0757   -5.1235   -3.9337 H   0  0  0  0  0  0  0  0  0  0  0  0
    4.0764   -3.7520   -3.7358 H   0  0  0  0  0  0  0  0  0  0  0  0
    5.2725    0.4999   -1.7139 H   0  0  0  0  0  0  0  0  0  0  0  0
  1  2  1  0  0  0  0
  1 25  1  0  0  0  0
  1 26  1  0  0  0  0
  1 27  1  0  0  0  0
  2  3  1  0  0  0  0
  2 28  1  0  0  0  0
  2 29  1  0  0  0  0
  3  4  1  0  0  0  0
  3 30  1  0  0  0  0
  3 31  1  0  0  0  0
  4  5  1  0  0  0  0
  4 24  2  0  0  0  0
  5  6  2  0  0  0  0
  5 32  1  0  0  0  0
  6  7  1  0  0  0  0
  6  8  1  0  0  0  0
  8  9  2  0  0  0  0
  8 33  1  0  0  0  0
  9 10  1  0  0  0  0
  9 24  1  0  0  0  0
 10 11  1  0  0  0  0
 10 34  1  0  0  0  0
 10 35  1  0  0  0  0
 11 12  2  0  0  0  0
 11 13  1  0  0  0  0
 13 14  1  0  0  0  0
 13 36  1  0  0  0  0
 14 15  1  0  0  0  0
 14 23  2  0  0  0  0
 15 16  2  0  0  0  0
 15 37  1  0  0  0  0
 16 17  1  0  0  0  0
 17 18  2  0  0  0  0
 17 38  1  0  0  0  0
 18 19  1  0  0  0  0
 18 23  1  0  0  0  0
 19 20  2  0  0  0  0
 19 39  1  0  0  0  0
 20 21  1  0  0  0  0
 20 40  1  0  0  0  0
 21 22  2  0  0  0  0
 21 41  1  0  0  0  0
 22 23  1  0  0  0  0
 22 42  1  0  0  0  0
 24 43  1  0  0  0  0
M  END
$$$$
