
 OpenBabel07202414133D

 59 63  0  0  1  0  0  0  0  0999 V2000
    2.6815   -4.2242    1.2733 C   0  0  0  0  0  0  0  0  0  0  0  0
    2.2776   -3.0404    0.4984 N   0  0  0  0  0  0  0  0  0  0  0  0
    0.8509   -3.0256    0.1017 C   0  0  0  0  0  0  0  0  0  0  0  0
   -0.1076   -2.7917    1.2666 C   0  0  0  0  0  0  0  0  0  0  0  0
   -1.4524   -2.7562    0.7951 O   0  0  0  0  0  0  0  0  0  0  0  0
    2.9565   -1.5681    0.9502 S   0  0  0  0  0  0  0  0  0  0  0  0
    2.2378   -0.4837    0.3320 O   0  0  0  0  0  0  0  0  0  0  0  0
    3.1596   -1.5851    2.3809 O   0  0  0  0  0  0  0  0  0  0  0  0
    4.4687   -1.6789    0.2320 N   0  0  0  0  0  0  0  0  0  0  0  0
    5.2855   -0.4527    0.3213 C   0  0  0  0  0  0  0  0  0  0  0  0
    5.1926    0.4303   -0.9049 C   0  0  0  0  0  0  0  0  0  0  0  0
    5.4903    1.8004   -0.7821 C   0  0  0  0  0  0  0  0  0  0  0  0
    5.4378    2.6437   -1.8912 C   0  0  0  0  0  0  0  0  0  0  0  0
    5.0992    2.1294   -3.1351 C   0  0  0  0  0  0  0  0  0  0  0  0
    5.0558    3.1605   -4.5115 Cl  0  0  0  0  0  0  0  0  0  0  0  0
    4.8054    0.7767   -3.2772 C   0  0  0  0  0  0  0  0  0  0  0  0
    4.8493   -0.0949   -2.1686 C   0  0  0  0  0  0  0  0  0  0  0  0
    4.4694   -1.5694   -2.3333 C   0  0  3  0  0  0  0  0  0  0  0  0
    5.3252   -2.2409   -3.4387 C   0  0  0  0  0  0  0  0  0  0  0  0
    4.3823   -2.6539   -4.5491 C   0  0  0  0  0  0  0  0  0  0  0  0
    3.0612   -2.2085   -4.1738 N   0  0  0  0  0  0  0  0  0  0  0  0
    2.1233   -1.8462   -5.2027 C   0  0  0  0  0  0  0  0  0  0  0  0
    1.4100   -0.6461   -5.0999 C   0  0  0  0  0  0  0  0  0  0  0  0
    0.8034   -0.0205   -6.1350 N   0  0  0  0  0  0  0  0  0  0  0  0
    0.8493   -0.6452   -7.3265 C   0  0  0  0  0  0  0  0  0  0  0  0
    1.3718   -1.9200   -7.5236 C   0  0  0  0  0  0  0  0  0  0  0  0
    1.2486   -2.5638   -8.7679 C   0  0  0  0  0  0  0  0  0  0  0  0
    1.6951   -3.8709   -8.9384 C   0  0  0  0  0  0  0  0  0  0  0  0
    2.2790   -4.5407   -7.8725 C   0  0  0  0  0  0  0  0  0  0  0  0
    2.4292   -3.8961   -6.6407 C   0  0  0  0  0  0  0  0  0  0  0  0
    2.0054   -2.5605   -6.4307 C   0  0  0  0  0  0  0  0  0  0  0  0
    3.0401   -1.6812   -2.8841 C   0  0  0  0  0  0  0  0  0  0  0  0
    2.0286   -1.2897   -2.3249 O   0  0  0  0  0  0  0  0  0  0  0  0
    4.6639   -2.3899   -1.0473 C   0  0  0  0  0  0  0  0  0  0  0  0
    2.3873   -5.1334    0.7387 H   0  0  0  0  0  0  0  0  0  0  0  0
    2.2085   -4.2311    2.2588 H   0  0  0  0  0  0  0  0  0  0  0  0
    3.7677   -4.2614    1.3960 H   0  0  0  0  0  0  0  0  0  0  0  0
    0.6073   -3.9702   -0.4007 H   0  0  0  0  0  0  0  0  0  0  0  0
    0.6736   -2.2661   -0.6634 H   0  0  0  0  0  0  0  0  0  0  0  0
    0.1024   -1.8527    1.7865 H   0  0  0  0  0  0  0  0  0  0  0  0
   -0.0355   -3.6039    1.9955 H   0  0  0  0  0  0  0  0  0  0  0  0
   -1.5167   -2.0026    0.1796 H   0  0  0  0  0  0  0  0  0  0  0  0
    6.3351   -0.7515    0.4446 H   0  0  0  0  0  0  0  0  0  0  0  0
    5.0262    0.1164    1.2223 H   0  0  0  0  0  0  0  0  0  0  0  0
    5.7504    2.2221    0.1863 H   0  0  0  0  0  0  0  0  0  0  0  0
    5.6554    3.7009   -1.7739 H   0  0  0  0  0  0  0  0  0  0  0  0
    4.5242    0.4094   -4.2626 H   0  0  0  0  0  0  0  0  0  0  0  0
    5.8428   -3.1385   -3.0816 H   0  0  0  0  0  0  0  0  0  0  0  0
    6.1161   -1.5901   -3.8282 H   0  0  0  0  0  0  0  0  0  0  0  0
    4.3883   -3.7445   -4.6384 H   0  0  0  0  0  0  0  0  0  0  0  0
    4.6929   -2.2067   -5.5028 H   0  0  0  0  0  0  0  0  0  0  0  0
    1.3514   -0.0784   -4.1756 H   0  0  0  0  0  0  0  0  0  0  0  0
    0.4125   -0.0789   -8.1454 H   0  0  0  0  0  0  0  0  0  0  0  0
    0.7662   -2.0604   -9.6036 H   0  0  0  0  0  0  0  0  0  0  0  0
    1.5559   -4.3749   -9.8913 H   0  0  0  0  0  0  0  0  0  0  0  0
    2.5972   -5.5737   -7.9876 H   0  0  0  0  0  0  0  0  0  0  0  0
    2.8240   -4.4842   -5.8177 H   0  0  0  0  0  0  0  0  0  0  0  0
    5.7159   -2.7172   -0.9944 H   0  0  0  0  0  0  0  0  0  0  0  0
    4.1040   -3.3287   -1.0849 H   0  0  0  0  0  0  0  0  0  0  0  0
  1  2  1  0  0  0  0
  1 35  1  0  0  0  0
  1 36  1  0  0  0  0
  1 37  1  0  0  0  0
  2  3  1  0  0  0  0
  2  6  1  0  0  0  0
  3  4  1  0  0  0  0
  3 38  1  0  0  0  0
  3 39  1  0  0  0  0
  4  5  1  0  0  0  0
  4 40  1  0  0  0  0
  4 41  1  0  0  0  0
  5 42  1  0  0  0  0
  6  7  2  0  0  0  0
  6  8  2  0  0  0  0
  6  9  1  0  0  0  0
  9 10  1  0  0  0  0
  9 34  1  0  0  0  0
 10 11  1  0  0  0  0
 10 43  1  0  0  0  0
 10 44  1  0  0  0  0
 11 12  1  0  0  0  0
 11 17  2  0  0  0  0
 12 13  2  0  0  0  0
 12 45  1  0  0  0  0
 13 14  1  0  0  0  0
 13 46  1  0  0  0  0
 14 15  1  0  0  0  0
 14 16  2  0  0  0  0
 16 17  1  0  0  0  0
 16 47  1  0  0  0  0
 17 18  1  0  0  0  0
 18 19  1  0  0  0  0
 18 32  1  0  0  0  0
 18 34  1  0  0  0  0
 19 20  1  0  0  0  0
 19 48  1  0  0  0  0
 19 49  1  0  0  0  0
 20 21  1  0  0  0  0
 20 50  1  0  0  0  0
 20 51  1  0  0  0  0
 21 22  1  0  0  0  0
 21 32  1  0  0  0  0
 22 23  1  0  0  0  0
 22 31  2  0  0  0  0
 23 24  2  0  0  0  0
 23 52  1  0  0  0  0
 24 25  1  0  0  0  0
 25 26  2  0  0  0  0
 25 53  1  0  0  0  0
 26 27  1  0  0  0  0
 26 31  1  0  0  0  0
 27 28  2  0  0  0  0
 27 54  1  0  0  0  0
 28 29  1  0  0  0  0
 28 55  1  0  0  0  0
 29 30  2  0  0  0  0
 29 56  1  0  0  0  0
 30 31  1  0  0  0  0
 30 57  1  0  0  0  0
 32 33  2  0  0  0  0
 34 58  1  0  0  0  0
 34 59  1  0  0  0  0
M  END
$$$$
