
 OpenBabel07202414173D

 61 66  0  0  1  0  0  0  0  0999 V2000
    0.9414    0.3380    0.0743 Cl  0  0  0  0  0  0  0  0  0  0  0  0
    2.6579    0.2279    0.0864 C   0  0  0  0  0  0  0  0  0  0  0  0
    3.4235    1.3822    0.0833 C   0  0  0  0  0  0  0  0  0  0  0  0
    4.8122    1.2789    0.0825 C   0  0  0  0  0  0  0  0  0  0  0  0
    5.4449    0.0203    0.0986 C   0  0  0  0  0  0  0  0  0  0  0  0
    4.6747   -1.1533    0.0993 C   0  0  0  0  0  0  0  0  0  0  0  0
    3.2702   -1.0263    0.0950 C   0  0  0  0  0  0  0  0  0  0  0  0
    5.3620   -2.5232    0.1509 C   0  0  3  0  0  0  0  0  0  0  0  0
    6.9079   -2.4175   -0.0355 C   0  0  0  0  0  0  0  0  0  0  0  0
    7.6140   -1.2334    0.4891 N   0  0  0  0  0  0  0  0  0  0  0  0
    7.7735   -1.3333    1.9606 C   0  0  0  0  0  0  0  0  0  0  0  0
    8.6684   -0.2601    2.5831 C   0  0  0  0  0  0  0  0  0  0  0  0
    8.7443   -0.1087    3.8024 O   0  0  0  0  0  0  0  0  0  0  0  0
    9.3670    0.5226    1.7033 N   0  0  0  0  0  0  0  0  0  0  0  0
   10.0381    1.7195    2.1248 C   0  0  0  0  0  0  0  0  0  0  0  0
   10.2434    2.6069    0.9403 C   0  0  0  0  0  0  0  0  0  0  0  0
   11.0658    2.1463   -0.2383 C   0  0  0  0  0  0  0  0  0  0  0  0
   11.5985    3.2105    0.6787 C   0  0  0  0  0  0  0  0  0  0  0  0
    6.9481   -0.0119    0.0145 C   0  0  0  0  0  0  0  0  0  0  0  0
    4.8524   -3.4606   -0.9525 C   0  0  0  0  0  0  0  0  0  0  0  0
    3.8478   -4.3808   -0.3008 C   0  0  0  0  0  0  0  0  0  0  0  0
    3.8521   -4.1231    1.1028 N   0  0  0  0  0  0  0  0  0  0  0  0
    2.8933   -4.6830    2.0296 C   0  0  0  0  0  0  0  0  0  0  0  0
    2.8340   -4.1774    3.3397 C   0  0  0  0  0  0  0  0  0  0  0  0
    2.0172   -4.6239    4.3242 N   0  0  0  0  0  0  0  0  0  0  0  0
    1.1523   -5.5946    3.9953 C   0  0  0  0  0  0  0  0  0  0  0  0
    1.0203   -6.1252    2.7175 C   0  0  0  0  0  0  0  0  0  0  0  0
   -0.0076   -7.0593    2.4688 C   0  0  0  0  0  0  0  0  0  0  0  0
   -0.1937   -7.6048    1.2048 C   0  0  0  0  0  0  0  0  0  0  0  0
    0.6727   -7.2542    0.1953 C   0  0  0  0  0  0  0  0  0  0  0  0
    0.4968   -7.9123   -1.3866 Cl  0  0  0  0  0  0  0  0  0  0  0  0
    1.7112   -6.3446    0.4412 C   0  0  0  0  0  0  0  0  0  0  0  0
    1.9131   -5.6972    1.6964 C   0  0  0  0  0  0  0  0  0  0  0  0
    4.9230   -3.2664    1.4339 C   0  0  0  0  0  0  0  0  0  0  0  0
    5.3800   -3.0725    2.5498 O   0  0  0  0  0  0  0  0  0  0  0  0
    2.9539    2.3628    0.0805 H   0  0  0  0  0  0  0  0  0  0  0  0
    5.4073    2.1910    0.0695 H   0  0  0  0  0  0  0  0  0  0  0  0
    2.6285   -1.9019    0.1088 H   0  0  0  0  0  0  0  0  0  0  0  0
    7.1159   -2.4038   -1.1175 H   0  0  0  0  0  0  0  0  0  0  0  0
    7.3950   -3.3355    0.3208 H   0  0  0  0  0  0  0  0  0  0  0  0
    8.2502   -2.2929    2.2012 H   0  0  0  0  0  0  0  0  0  0  0  0
    6.8126   -1.2592    2.4688 H   0  0  0  0  0  0  0  0  0  0  0  0
    9.4075    0.2132    0.7390 H   0  0  0  0  0  0  0  0  0  0  0  0
   10.9759    1.4302    2.6051 H   0  0  0  0  0  0  0  0  0  0  0  0
    9.4172    2.2333    2.8690 H   0  0  0  0  0  0  0  0  0  0  0  0
    9.3660    3.2110    0.7331 H   0  0  0  0  0  0  0  0  0  0  0  0
   10.7393    2.4434   -1.2285 H   0  0  0  0  0  0  0  0  0  0  0  0
   11.5226    1.1638   -0.1966 H   0  0  0  0  0  0  0  0  0  0  0  0
   11.6401    4.2281    0.3082 H   0  0  0  0  0  0  0  0  0  0  0  0
   12.4182    2.9462    1.3378 H   0  0  0  0  0  0  0  0  0  0  0  0
    7.2141    0.1171   -1.0440 H   0  0  0  0  0  0  0  0  0  0  0  0
    7.3323    0.8795    0.5164 H   0  0  0  0  0  0  0  0  0  0  0  0
    5.6565   -4.0806   -1.3707 H   0  0  0  0  0  0  0  0  0  0  0  0
    4.4096   -2.9295   -1.8023 H   0  0  0  0  0  0  0  0  0  0  0  0
    4.1902   -5.4095   -0.4506 H   0  0  0  0  0  0  0  0  0  0  0  0
    2.8586   -4.2007   -0.7268 H   0  0  0  0  0  0  0  0  0  0  0  0
    3.4309   -3.3301    3.6643 H   0  0  0  0  0  0  0  0  0  0  0  0
    0.5457   -5.9526    4.8255 H   0  0  0  0  0  0  0  0  0  0  0  0
   -0.6889   -7.3548    3.2639 H   0  0  0  0  0  0  0  0  0  0  0  0
   -1.0139   -8.2908    1.0082 H   0  0  0  0  0  0  0  0  0  0  0  0
    2.3526   -6.1680   -0.4054 H   0  0  0  0  0  0  0  0  0  0  0  0
  1  2  1  0  0  0  0
  2  3  1  0  0  0  0
  2  7  2  0  0  0  0
  3  4  2  0  0  0  0
  3 36  1  0  0  0  0
  4  5  1  0  0  0  0
  4 37  1  0  0  0  0
  5  6  2  0  0  0  0
  5 19  1  0  0  0  0
  6  7  1  0  0  0  0
  6  8  1  0  0  0  0
  7 38  1  0  0  0  0
  8  9  1  0  0  0  0
  8 20  1  0  0  0  0
  8 34  1  0  0  0  0
  9 10  1  0  0  0  0
  9 39  1  0  0  0  0
  9 40  1  0  0  0  0
 10 11  1  0  0  0  0
 10 19  1  0  0  0  0
 11 12  1  0  0  0  0
 11 41  1  0  0  0  0
 11 42  1  0  0  0  0
 12 13  2  0  0  0  0
 12 14  1  0  0  0  0
 14 15  1  0  0  0  0
 14 43  1  0  0  0  0
 15 16  1  0  0  0  0
 15 44  1  0  0  0  0
 15 45  1  0  0  0  0
 16 17  1  0  0  0  0
 16 18  1  0  0  0  0
 16 46  1  0  0  0  0
 17 18  1  0  0  0  0
 17 47  1  0  0  0  0
 17 48  1  0  0  0  0
 18 49  1  0  0  0  0
 18 50  1  0  0  0  0
 19 51  1  0  0  0  0
 19 52  1  0  0  0  0
 20 21  1  0  0  0  0
 20 53  1  0  0  0  0
 20 54  1  0  0  0  0
 21 22  1  0  0  0  0
 21 55  1  0  0  0  0
 21 56  1  0  0  0  0
 22 23  1  0  0  0  0
 22 34  1  0  0  0  0
 23 24  1  0  0  0  0
 23 33  2  0  0  0  0
 24 25  2  0  0  0  0
 24 57  1  0  0  0  0
 25 26  1  0  0  0  0
 26 27  2  0  0  0  0
 26 58  1  0  0  0  0
 27 28  1  0  0  0  0
 27 33  1  0  0  0  0
 28 29  2  0  0  0  0
 28 59  1  0  0  0  0
 29 30  1  0  0  0  0
 29 60  1  0  0  0  0
 30 31  1  0  0  0  0
 30 32  2  0  0  0  0
 32 33  1  0  0  0  0
 32 61  1  0  0  0  0
 34 35  2  0  0  0  0
M  END
$$$$
