
 OpenBabel07202414133D

 43 47  0  0  1  0  0  0  0  0999 V2000
    1.0697    0.1545    0.2857 C   0  0  0  0  0  0  0  0  0  0  0  0
    2.5124    0.1401    0.4081 N   0  0  0  0  0  0  0  0  0  0  0  0
    3.2556   -1.0234    0.2947 C   0  0  0  0  0  0  0  0  0  0  0  0
    2.8632   -2.1646    0.1564 O   0  0  0  0  0  0  0  0  0  0  0  0
    4.6663   -0.6300    0.3052 C   0  0  0  0  0  0  0  0  0  0  0  0
    5.7796   -1.4314    0.1094 C   0  0  0  0  0  0  0  0  0  0  0  0
    7.0212   -0.8002    0.0219 C   0  0  0  0  0  0  0  0  0  0  0  0
    7.1162    0.5970    0.1492 C   0  0  0  0  0  0  0  0  0  0  0  0
    8.6512    1.3563   -0.0366 Cl  0  0  0  0  0  0  0  0  0  0  0  0
    5.9816    1.3901    0.3562 C   0  0  0  0  0  0  0  0  0  0  0  0
    4.7437    0.7602    0.4144 C   0  0  0  0  0  0  0  0  0  0  0  0
    3.3494    1.3508    0.3551 C   0  0  1  0  0  0  0  0  0  0  0  0
    3.2119    2.0756   -0.9751 C   0  0  0  0  0  0  0  0  0  0  0  0
    2.6195    3.4172   -0.6387 C   0  0  0  0  0  0  0  0  0  0  0  0
    2.6309    3.6024    0.7826 N   0  0  0  0  0  0  0  0  0  0  0  0
    2.3584    4.8951    1.3829 C   0  0  0  0  0  0  0  0  0  0  0  0
    2.6584    5.1047    2.7358 C   0  0  0  0  0  0  0  0  0  0  0  0
    2.6661    6.3064    3.3617 N   0  0  0  0  0  0  0  0  0  0  0  0
    2.2761    7.3679    2.6359 C   0  0  0  0  0  0  0  0  0  0  0  0
    1.7881    7.2957    1.3386 C   0  0  0  0  0  0  0  0  0  0  0  0
    1.2391    8.4549    0.7481 C   0  0  0  0  0  0  0  0  0  0  0  0
    0.6889    8.4257   -0.5266 C   0  0  0  0  0  0  0  0  0  0  0  0
    0.7376    7.2498   -1.2444 C   0  0  0  0  0  0  0  0  0  0  0  0
    1.3009    6.1048   -0.6673 C   0  0  0  0  0  0  0  0  0  0  0  0
    1.8321    6.0481    0.6605 C   0  0  0  0  0  0  0  0  0  0  0  0
    3.0456    2.4158    1.4358 C   0  0  0  0  0  0  0  0  0  0  0  0
    3.1196    2.2165    2.6435 O   0  0  0  0  0  0  0  0  0  0  0  0
    0.6730   -0.8646    0.3290 H   0  0  0  0  0  0  0  0  0  0  0  0
    0.7921    0.5849   -0.6804 H   0  0  0  0  0  0  0  0  0  0  0  0
    0.6391    0.7487    1.0926 H   0  0  0  0  0  0  0  0  0  0  0  0
    5.6752   -2.5046   -0.0182 H   0  0  0  0  0  0  0  0  0  0  0  0
    7.9110   -1.3939   -0.1730 H   0  0  0  0  0  0  0  0  0  0  0  0
    6.0676    2.4715    0.4040 H   0  0  0  0  0  0  0  0  0  0  0  0
    2.5688    1.5515   -1.6913 H   0  0  0  0  0  0  0  0  0  0  0  0
    4.1634    2.2236   -1.4988 H   0  0  0  0  0  0  0  0  0  0  0  0
    1.5834    3.4075   -0.9793 H   0  0  0  0  0  0  0  0  0  0  0  0
    3.2155    4.2034   -1.1152 H   0  0  0  0  0  0  0  0  0  0  0  0
    2.9375    4.2996    3.4078 H   0  0  0  0  0  0  0  0  0  0  0  0
    2.3496    8.3189    3.1591 H   0  0  0  0  0  0  0  0  0  0  0  0
    1.1987    9.3910    1.3028 H   0  0  0  0  0  0  0  0  0  0  0  0
    0.2178    9.3079   -0.9508 H   0  0  0  0  0  0  0  0  0  0  0  0
    0.3230    7.2002   -2.2487 H   0  0  0  0  0  0  0  0  0  0  0  0
    1.2581    5.2449   -1.3153 H   0  0  0  0  0  0  0  0  0  0  0  0
  1  2  1  0  0  0  0
  1 28  1  0  0  0  0
  1 29  1  0  0  0  0
  1 30  1  0  0  0  0
  2  3  1  0  0  0  0
  2 12  1  0  0  0  0
  3  4  2  0  0  0  0
  3  5  1  0  0  0  0
  5  6  1  0  0  0  0
  5 11  2  0  0  0  0
  6  7  2  0  0  0  0
  6 31  1  0  0  0  0
  7  8  1  0  0  0  0
  7 32  1  0  0  0  0
  8  9  1  0  0  0  0
  8 10  2  0  0  0  0
 10 11  1  0  0  0  0
 10 33  1  0  0  0  0
 12 11  1  1  0  0  0
 12 13  1  0  0  0  0
 12 26  1  0  0  0  0
 13 14  1  0  0  0  0
 13 34  1  0  0  0  0
 13 35  1  0  0  0  0
 14 15  1  0  0  0  0
 14 36  1  0  0  0  0
 14 37  1  0  0  0  0
 15 16  1  0  0  0  0
 15 26  1  0  0  0  0
 16 17  1  0  0  0  0
 16 25  2  0  0  0  0
 17 18  2  0  0  0  0
 17 38  1  0  0  0  0
 18 19  1  0  0  0  0
 19 20  2  0  0  0  0
 19 39  1  0  0  0  0
 20 21  1  0  0  0  0
 20 25  1  0  0  0  0
 21 22  2  0  0  0  0
 21 40  1  0  0  0  0
 22 23  1  0  0  0  0
 22 41  1  0  0  0  0
 23 24  2  0  0  0  0
 23 42  1  0  0  0  0
 24 25  1  0  0  0  0
 24 43  1  0  0  0  0
 26 27  2  0  0  0  0
M  END
$$$$
