
 OpenBabel07202414153D

 44 47  0  0  1  0  0  0  0  0999 V2000
   10.5337    1.2630   -3.7747 C   0  0  0  0  0  0  0  0  0  0  0  0
    9.8009    1.2312   -2.5510 O   0  0  0  0  0  0  0  0  0  0  0  0
   10.5539    1.0824   -1.4170 C   0  0  0  0  0  0  0  0  0  0  0  0
   11.8754    1.4905   -1.2841 C   0  0  0  0  0  0  0  0  0  0  0  0
   12.5363    1.3038   -0.0728 C   0  0  0  0  0  0  0  0  0  0  0  0
   11.8880    0.6996    1.0163 C   0  0  0  0  0  0  0  0  0  0  0  0
   12.5645    0.5156    2.2216 C   0  0  0  0  0  0  0  0  0  0  0  0
   12.0363   -0.0654    3.3130 N   0  0  0  0  0  0  0  0  0  0  0  0
   10.7536   -0.4747    3.2126 C   0  0  0  0  0  0  0  0  0  0  0  0
    9.9571   -0.3289    2.0763 C   0  0  0  0  0  0  0  0  0  0  0  0
    8.6170   -0.7912    2.0455 N   0  0  0  0  0  0  0  0  0  0  0  0
    7.8346   -1.1181    3.1481 C   0  0  0  0  0  0  0  0  0  0  0  0
    8.1702   -0.9910    4.3262 O   0  0  0  0  0  0  0  0  0  0  0  0
    6.4485   -1.6583    2.8055 C   0  0  1  0  0  0  0  0  0  0  0  0
    5.6557   -0.5500    2.0939 C   0  0  0  0  0  0  0  0  0  0  0  0
    4.4398   -1.1250    1.3984 C   0  0  0  0  0  0  0  0  0  0  0  0
    4.8409   -2.1587    0.4619 N   0  0  0  0  0  0  0  0  0  0  0  0
    5.8191   -3.0747    0.8108 C   0  0  0  0  0  0  0  0  0  0  0  0
    6.0237   -4.2087    0.0182 C   0  0  0  0  0  0  0  0  0  0  0  0
    6.9379   -5.2009    0.3942 C   0  0  0  0  0  0  0  0  0  0  0  0
    7.1709   -6.5309   -0.6838 Cl  0  0  0  0  0  0  0  0  0  0  0  0
    7.6244   -5.0911    1.6041 C   0  0  0  0  0  0  0  0  0  0  0  0
    8.7622   -6.2737    2.1414 Cl  0  0  0  0  0  0  0  0  0  0  0  0
    7.4151   -3.9731    2.4124 C   0  0  0  0  0  0  0  0  0  0  0  0
    6.5486   -2.9423    1.9985 C   0  0  0  0  0  0  0  0  0  0  0  0
   10.5434    0.2708    0.9202 C   0  0  0  0  0  0  0  0  0  0  0  0
    9.8924    0.5034   -0.3232 C   0  0  0  0  0  0  0  0  0  0  0  0
    9.8134    1.2285   -4.5975 H   0  0  0  0  0  0  0  0  0  0  0  0
   11.1872    0.3884   -3.8642 H   0  0  0  0  0  0  0  0  0  0  0  0
   11.1041    2.1918   -3.8766 H   0  0  0  0  0  0  0  0  0  0  0  0
   12.4125    1.9746   -2.0936 H   0  0  0  0  0  0  0  0  0  0  0  0
   13.5686    1.6381    0.0179 H   0  0  0  0  0  0  0  0  0  0  0  0
   13.5920    0.8445    2.3480 H   0  0  0  0  0  0  0  0  0  0  0  0
   10.3996   -0.9742    4.1087 H   0  0  0  0  0  0  0  0  0  0  0  0
    8.1790   -0.8590    1.1361 H   0  0  0  0  0  0  0  0  0  0  0  0
    5.9340   -1.9059    3.7456 H   0  0  0  0  0  0  0  0  0  0  0  0
    6.2656   -0.0320    1.3442 H   0  0  0  0  0  0  0  0  0  0  0  0
    5.3593    0.2162    2.8201 H   0  0  0  0  0  0  0  0  0  0  0  0
    3.9167   -0.3306    0.8552 H   0  0  0  0  0  0  0  0  0  0  0  0
    3.7343   -1.5352    2.1301 H   0  0  0  0  0  0  0  0  0  0  0  0
    4.6813   -1.9923   -0.5266 H   0  0  0  0  0  0  0  0  0  0  0  0
    5.4576   -4.3268   -0.9029 H   0  0  0  0  0  0  0  0  0  0  0  0
    7.9542   -3.8885    3.3560 H   0  0  0  0  0  0  0  0  0  0  0  0
    8.8499    0.2353   -0.4669 H   0  0  0  0  0  0  0  0  0  0  0  0
  1  2  1  0  0  0  0
  1 28  1  0  0  0  0
  1 29  1  0  0  0  0
  1 30  1  0  0  0  0
  2  3  1  0  0  0  0
  3  4  1  0  0  0  0
  3 27  2  0  0  0  0
  4  5  2  0  0  0  0
  4 31  1  0  0  0  0
  5  6  1  0  0  0  0
  5 32  1  0  0  0  0
  6  7  1  0  0  0  0
  6 26  2  0  0  0  0
  7  8  2  0  0  0  0
  7 33  1  0  0  0  0
  8  9  1  0  0  0  0
  9 10  2  0  0  0  0
  9 34  1  0  0  0  0
 10 11  1  0  0  0  0
 10 26  1  0  0  0  0
 11 12  1  0  0  0  0
 11 35  1  0  0  0  0
 12 13  2  0  0  0  0
 14 15  1  0  0  0  0
 14 25  1  0  0  0  0
 14 12  1  0  0  0  0
 14 36  1  1  0  0  0
 15 16  1  0  0  0  0
 15 37  1  0  0  0  0
 15 38  1  0  0  0  0
 16 17  1  0  0  0  0
 16 39  1  0  0  0  0
 16 40  1  0  0  0  0
 17 18  1  0  0  0  0
 17 41  1  0  0  0  0
 18 19  1  0  0  0  0
 18 25  2  0  0  0  0
 19 20  2  0  0  0  0
 19 42  1  0  0  0  0
 20 21  1  0  0  0  0
 20 22  1  0  0  0  0
 22 23  1  0  0  0  0
 22 24  2  0  0  0  0
 24 25  1  0  0  0  0
 24 43  1  0  0  0  0
 26 27  1  0  0  0  0
 27 44  1  0  0  0  0
M  END
$$$$
