
 OpenBabel07202414163D

 35 37  0  0  1  0  0  0  0  0999 V2000
   -2.5364   -0.0516   -0.3271 C   0  0  0  0  0  0  0  0  0  0  0  0
   -1.0484    0.0136   -0.1276 C   0  0  0  0  0  0  0  0  0  0  0  0
   -0.3130   -1.1792   -0.1080 C   0  0  0  0  0  0  0  0  0  0  0  0
    1.0706   -1.1223   -0.0246 C   0  0  0  0  0  0  0  0  0  0  0  0
    1.7723    0.0274    0.0238 N   0  0  0  0  0  0  0  0  0  0  0  0
    1.0463    1.1694    0.0234 C   0  0  0  0  0  0  0  0  0  0  0  0
   -0.3479    1.2240   -0.0278 C   0  0  0  0  0  0  0  0  0  0  0  0
   -0.9875    2.4757    0.0369 N   0  0  0  0  0  0  0  0  0  0  0  0
   -0.8362    3.4675   -0.9934 C   0  0  0  0  0  0  0  0  0  0  0  0
   -1.4297    4.7249   -0.3865 C   0  0  0  0  0  0  0  0  0  0  0  0
   -2.4708    4.2064    0.6173 C   0  0  3  0  0  0  0  0  0  0  0  0
   -1.9523    2.8212    0.9832 C   0  0  0  0  0  0  0  0  0  0  0  0
   -2.3204    2.1592    1.9398 O   0  0  0  0  0  0  0  0  0  0  0  0
   -2.6738    5.1021    1.8204 C   0  0  0  0  0  0  0  0  0  0  0  0
   -1.6097    5.4381    2.6759 C   0  0  0  0  0  0  0  0  0  0  0  0
   -1.8243    6.2170    3.8154 C   0  0  0  0  0  0  0  0  0  0  0  0
   -3.1068    6.6666    4.1213 C   0  0  0  0  0  0  0  0  0  0  0  0
   -4.1684    6.3405    3.2814 C   0  0  0  0  0  0  0  0  0  0  0  0
   -3.9588    5.5679    2.1374 C   0  0  0  0  0  0  0  0  0  0  0  0
   -5.7568    6.8819    3.6653 Cl  0  0  0  0  0  0  0  0  0  0  0  0
   -2.8587   -1.0683   -0.5761 H   0  0  0  0  0  0  0  0  0  0  0  0
   -2.8335    0.5887   -1.1650 H   0  0  0  0  0  0  0  0  0  0  0  0
   -3.0764    0.2469    0.5736 H   0  0  0  0  0  0  0  0  0  0  0  0
   -0.8056   -2.1445   -0.1703 H   0  0  0  0  0  0  0  0  0  0  0  0
    1.6655   -2.0310   -0.0027 H   0  0  0  0  0  0  0  0  0  0  0  0
    1.6397    2.0744    0.1151 H   0  0  0  0  0  0  0  0  0  0  0  0
   -1.4135    3.1439   -1.8670 H   0  0  0  0  0  0  0  0  0  0  0  0
    0.2107    3.6060   -1.2796 H   0  0  0  0  0  0  0  0  0  0  0  0
   -1.8780    5.3756   -1.1455 H   0  0  0  0  0  0  0  0  0  0  0  0
   -0.6365    5.3015    0.1014 H   0  0  0  0  0  0  0  0  0  0  0  0
   -3.4234    4.0465    0.0930 H   0  0  0  0  0  0  0  0  0  0  0  0
   -0.6030    5.0726    2.4804 H   0  0  0  0  0  0  0  0  0  0  0  0
   -0.9930    6.4561    4.4744 H   0  0  0  0  0  0  0  0  0  0  0  0
   -3.2732    7.2565    5.0184 H   0  0  0  0  0  0  0  0  0  0  0  0
   -4.8068    5.3110    1.5069 H   0  0  0  0  0  0  0  0  0  0  0  0
  1  2  1  0  0  0  0
  1 21  1  0  0  0  0
  1 22  1  0  0  0  0
  1 23  1  0  0  0  0
  2  3  1  0  0  0  0
  2  7  2  0  0  0  0
  3  4  2  0  0  0  0
  3 24  1  0  0  0  0
  4  5  1  0  0  0  0
  4 25  1  0  0  0  0
  5  6  2  0  0  0  0
  6  7  1  0  0  0  0
  6 26  1  0  0  0  0
  7  8  1  0  0  0  0
  8  9  1  0  0  0  0
  8 12  1  0  0  0  0
  9 10  1  0  0  0  0
  9 27  1  0  0  0  0
  9 28  1  0  0  0  0
 10 11  1  0  0  0  0
 10 29  1  0  0  0  0
 10 30  1  0  0  0  0
 11 12  1  0  0  0  0
 11 14  1  0  0  0  0
 11 31  1  0  0  0  0
 12 13  2  0  0  0  0
 14 15  1  0  0  0  0
 14 19  2  0  0  0  0
 15 16  2  0  0  0  0
 15 32  1  0  0  0  0
 16 17  1  0  0  0  0
 16 33  1  0  0  0  0
 17 18  2  0  0  0  0
 17 34  1  0  0  0  0
 18 19  1  0  0  0  0
 18 20  1  0  0  0  0
 19 35  1  0  0  0  0
M  END
$$$$
