
 OpenBabel07202414153D

 45 48  0  0  1  0  0  0  0  0999 V2000
    3.9943    4.6978   -9.2215 C   0  0  0  0  0  0  0  0  0  0  0  0
    5.6485    4.2905   -8.7165 S   0  0  0  0  0  0  0  0  0  0  0  0
    6.3729    3.8009   -9.8730 O   0  0  0  0  0  0  0  0  0  0  0  0
    6.1688    5.3756   -7.9086 O   0  0  0  0  0  0  0  0  0  0  0  0
    5.3775    2.9132   -7.6257 C   0  0  0  0  0  0  0  0  0  0  0  0
    5.4627    1.6158   -8.1180 C   0  0  0  0  0  0  0  0  0  0  0  0
    5.2033    0.5555   -7.2558 C   0  0  0  0  0  0  0  0  0  0  0  0
    4.8428    0.7893   -5.9147 C   0  0  0  0  0  0  0  0  0  0  0  0
    4.5696   -0.2777   -5.0625 C   0  0  0  0  0  0  0  0  0  0  0  0
    4.1984   -0.1475   -3.7766 N   0  0  0  0  0  0  0  0  0  0  0  0
    4.1016    1.1143   -3.2976 C   0  0  0  0  0  0  0  0  0  0  0  0
    4.3574    2.2740   -4.0329 C   0  0  0  0  0  0  0  0  0  0  0  0
    4.2006    3.5778   -3.4768 N   0  0  0  0  0  0  0  0  0  0  0  0
    4.0842    3.8755   -2.1304 C   0  0  0  0  0  0  0  0  0  0  0  0
    4.1285    3.0551   -1.2139 O   0  0  0  0  0  0  0  0  0  0  0  0
    3.9315    5.3564   -1.7891 C   0  0  3  0  0  0  0  0  0  0  0  0
    2.6311    5.9361   -2.3351 C   0  0  0  0  0  0  0  0  0  0  0  0
    2.7681    6.4428   -3.6828 N   0  0  0  0  0  0  0  0  0  0  0  0
    3.8192    7.2636   -4.0308 C   0  0  0  0  0  0  0  0  0  0  0  0
    3.7077    8.0098   -4.9915 O   0  0  0  0  0  0  0  0  0  0  0  0
    5.0675    7.1231   -3.2313 C   0  0  0  0  0  0  0  0  0  0  0  0
    6.2006    7.8782   -3.5539 C   0  0  0  0  0  0  0  0  0  0  0  0
    6.1666    8.8101   -4.5153 F   0  0  0  0  0  0  0  0  0  0  0  0
    7.4058    7.6764   -2.8877 C   0  0  0  0  0  0  0  0  0  0  0  0
    7.4787    6.7214   -1.8877 C   0  0  0  0  0  0  0  0  0  0  0  0
    8.6430    6.4985   -1.2650 F   0  0  0  0  0  0  0  0  0  0  0  0
    6.3613    5.9737   -1.5271 C   0  0  0  0  0  0  0  0  0  0  0  0
    5.1397    6.1740   -2.1908 C   0  0  0  0  0  0  0  0  0  0  0  0
    4.7460    2.1073   -5.3949 C   0  0  0  0  0  0  0  0  0  0  0  0
    5.0607    3.1643   -6.2827 C   0  0  0  0  0  0  0  0  0  0  0  0
    4.0414    5.5520   -9.8989 H   0  0  0  0  0  0  0  0  0  0  0  0
    3.4063    4.9540   -8.3377 H   0  0  0  0  0  0  0  0  0  0  0  0
    3.5606    3.8369   -9.7349 H   0  0  0  0  0  0  0  0  0  0  0  0
    5.7261    1.4202   -9.1555 H   0  0  0  0  0  0  0  0  0  0  0  0
    5.2750   -0.4620   -7.6387 H   0  0  0  0  0  0  0  0  0  0  0  0
    4.6376   -1.3078   -5.4028 H   0  0  0  0  0  0  0  0  0  0  0  0
    3.7626    1.1405   -2.2670 H   0  0  0  0  0  0  0  0  0  0  0  0
    4.2462    4.3628   -4.1113 H   0  0  0  0  0  0  0  0  0  0  0  0
    3.8518    5.4032   -0.6928 H   0  0  0  0  0  0  0  0  0  0  0  0
    2.3250    6.7923   -1.7205 H   0  0  0  0  0  0  0  0  0  0  0  0
    1.8134    5.2078   -2.3261 H   0  0  0  0  0  0  0  0  0  0  0  0
    1.9220    6.6667   -4.1995 H   0  0  0  0  0  0  0  0  0  0  0  0
    8.2829    8.2536   -3.1594 H   0  0  0  0  0  0  0  0  0  0  0  0
    6.4586    5.2327   -0.7355 H   0  0  0  0  0  0  0  0  0  0  0  0
    5.0671    4.1968   -5.9433 H   0  0  0  0  0  0  0  0  0  0  0  0
  1  2  1  0  0  0  0
  1 31  1  0  0  0  0
  1 32  1  0  0  0  0
  1 33  1  0  0  0  0
  2  3  2  0  0  0  0
  2  4  2  0  0  0  0
  2  5  1  0  0  0  0
  5  6  1  0  0  0  0
  5 30  2  0  0  0  0
  6  7  2  0  0  0  0
  6 34  1  0  0  0  0
  7  8  1  0  0  0  0
  7 35  1  0  0  0  0
  8  9  1  0  0  0  0
  8 29  2  0  0  0  0
  9 10  2  0  0  0  0
  9 36  1  0  0  0  0
 10 11  1  0  0  0  0
 11 12  2  0  0  0  0
 11 37  1  0  0  0  0
 12 13  1  0  0  0  0
 12 29  1  0  0  0  0
 13 14  1  0  0  0  0
 13 38  1  0  0  0  0
 14 15  2  0  0  0  0
 14 16  1  0  0  0  0
 16 17  1  0  0  0  0
 16 28  1  0  0  0  0
 16 39  1  0  0  0  0
 17 18  1  0  0  0  0
 17 40  1  0  0  0  0
 17 41  1  0  0  0  0
 18 19  1  0  0  0  0
 18 42  1  0  0  0  0
 19 20  2  0  0  0  0
 19 21  1  0  0  0  0
 21 22  1  0  0  0  0
 21 28  2  0  0  0  0
 22 23  1  0  0  0  0
 22 24  2  0  0  0  0
 24 25  1  0  0  0  0
 24 43  1  0  0  0  0
 25 26  1  0  0  0  0
 25 27  2  0  0  0  0
 27 28  1  0  0  0  0
 27 44  1  0  0  0  0
 29 30  1  0  0  0  0
 30 45  1  0  0  0  0
M  END
$$$$
