
 OpenBabel07202414163D

 43 45  0  0  0  0  0  0  0  0999 V2000
    3.6797   -2.1966    4.9939 C   0  0  0  0  0  0  0  0  0  0  0  0
    4.5124   -1.7073    3.8445 C   0  0  0  0  0  0  0  0  0  0  0  0
    5.1768   -0.4778    3.9288 C   0  0  0  0  0  0  0  0  0  0  0  0
    5.9151   -0.0171    2.8477 C   0  0  0  0  0  0  0  0  0  0  0  0
    5.9687   -0.7754    1.6810 C   0  0  0  0  0  0  0  0  0  0  0  0
    6.6615   -0.2855    0.6415 F   0  0  0  0  0  0  0  0  0  0  0  0
    5.3167   -2.0107    1.5505 C   0  0  0  0  0  0  0  0  0  0  0  0
    5.4320   -2.6894    0.2088 C   0  0  0  0  0  0  0  0  0  0  0  0
    4.7040   -3.9349   -0.0242 N   0  0  0  0  0  0  0  0  0  0  0  0
    3.2774   -3.8222   -0.3361 C   0  0  0  0  0  0  0  0  0  0  0  0
    5.3842   -5.1570    0.1155 C   0  0  0  0  0  0  0  0  0  0  0  0
    6.5581   -5.2123    0.4606 O   0  0  0  0  0  0  0  0  0  0  0  0
    4.5340   -6.3839   -0.1843 C   0  0  0  0  0  0  0  0  0  0  0  0
    5.0852   -7.7873   -0.3126 C   0  0  0  0  0  0  0  0  0  0  0  0
    6.4400   -8.1005   -0.3033 C   0  0  0  0  0  0  0  0  0  0  0  0
    6.9394   -9.3230   -0.6036 N   0  0  0  0  0  0  0  0  0  0  0  0
    6.0491  -10.2936   -0.9028 C   0  0  0  0  0  0  0  0  0  0  0  0
    4.6661  -10.1345   -0.8722 C   0  0  0  0  0  0  0  0  0  0  0  0
    3.7864  -11.2058   -1.1282 C   0  0  0  0  0  0  0  0  0  0  0  0
    2.4052  -11.0236   -1.0839 C   0  0  0  0  0  0  0  0  0  0  0  0
    1.8895   -9.7655   -0.8131 C   0  0  0  0  0  0  0  0  0  0  0  0
    2.7552   -8.6962   -0.5733 C   0  0  0  0  0  0  0  0  0  0  0  0
    4.1651   -8.8498   -0.5771 C   0  0  0  0  0  0  0  0  0  0  0  0
    4.6112   -2.4713    2.6634 C   0  0  0  0  0  0  0  0  0  0  0  0
    3.9825   -3.6557    2.6268 F   0  0  0  0  0  0  0  0  0  0  0  0
    3.6558   -1.4647    5.8095 H   0  0  0  0  0  0  0  0  0  0  0  0
    4.0841   -3.1314    5.3919 H   0  0  0  0  0  0  0  0  0  0  0  0
    2.6469   -2.3541    4.6668 H   0  0  0  0  0  0  0  0  0  0  0  0
    5.1188    0.1262    4.8339 H   0  0  0  0  0  0  0  0  0  0  0  0
    6.4374    0.9338    2.8940 H   0  0  0  0  0  0  0  0  0  0  0  0
    6.4938   -2.8570   -0.0057 H   0  0  0  0  0  0  0  0  0  0  0  0
    5.0718   -1.9808   -0.5509 H   0  0  0  0  0  0  0  0  0  0  0  0
    3.0566   -2.8458   -0.7738 H   0  0  0  0  0  0  0  0  0  0  0  0
    2.6969   -3.9605    0.5785 H   0  0  0  0  0  0  0  0  0  0  0  0
    2.9643   -4.5759   -1.0619 H   0  0  0  0  0  0  0  0  0  0  0  0
    4.1054   -6.2019   -1.1761 H   0  0  0  0  0  0  0  0  0  0  0  0
    3.7535   -6.3897    0.5828 H   0  0  0  0  0  0  0  0  0  0  0  0
    7.2068   -7.3706   -0.0648 H   0  0  0  0  0  0  0  0  0  0  0  0
    6.4993  -11.2426   -1.1835 H   0  0  0  0  0  0  0  0  0  0  0  0
    4.1755  -12.1970   -1.3499 H   0  0  0  0  0  0  0  0  0  0  0  0
    1.7347  -11.8613   -1.2558 H   0  0  0  0  0  0  0  0  0  0  0  0
    0.8137   -9.6091   -0.7805 H   0  0  0  0  0  0  0  0  0  0  0  0
    2.2979   -7.7320   -0.3662 H   0  0  0  0  0  0  0  0  0  0  0  0
  1  2  1  0  0  0  0
  1 26  1  0  0  0  0
  1 27  1  0  0  0  0
  1 28  1  0  0  0  0
  2  3  1  0  0  0  0
  2 24  2  0  0  0  0
  3  4  2  0  0  0  0
  3 29  1  0  0  0  0
  4  5  1  0  0  0  0
  4 30  1  0  0  0  0
  5  6  1  0  0  0  0
  5  7  2  0  0  0  0
  7  8  1  0  0  0  0
  7 24  1  0  0  0  0
  8  9  1  0  0  0  0
  8 31  1  0  0  0  0
  8 32  1  0  0  0  0
  9 10  1  0  0  0  0
  9 11  1  0  0  0  0
 10 33  1  0  0  0  0
 10 34  1  0  0  0  0
 10 35  1  0  0  0  0
 11 12  2  0  0  0  0
 11 13  1  0  0  0  0
 13 14  1  0  0  0  0
 13 36  1  0  0  0  0
 13 37  1  0  0  0  0
 14 15  1  0  0  0  0
 14 23  2  0  0  0  0
 15 16  2  0  0  0  0
 15 38  1  0  0  0  0
 16 17  1  0  0  0  0
 17 18  2  0  0  0  0
 17 39  1  0  0  0  0
 18 19  1  0  0  0  0
 18 23  1  0  0  0  0
 19 20  2  0  0  0  0
 19 40  1  0  0  0  0
 20 21  1  0  0  0  0
 20 41  1  0  0  0  0
 21 22  2  0  0  0  0
 21 42  1  0  0  0  0
 22 23  1  0  0  0  0
 22 43  1  0  0  0  0
 24 25  1  0  0  0  0
M  END
$$$$
