
 OpenBabel07202414153D

 62 66  0  0  1  0  0  0  0  0999 V2000
   10.7865    3.4216    1.9369 C   0  0  0  0  0  0  0  0  0  0  0  0
   10.0968    5.0296    1.5787 S   0  0  0  0  0  0  0  0  0  0  0  0
    8.6556    4.9275    1.5179 O   0  0  0  0  0  0  0  0  0  0  0  0
   10.7396    5.9816    2.4615 O   0  0  0  0  0  0  0  0  0  0  0  0
   10.6961    5.3715    0.0352 N   0  0  0  0  0  0  0  0  0  0  0  0
   10.2598    4.5334   -1.0300 C   0  0  0  0  0  0  0  0  0  0  0  0
   11.0581    3.4557   -1.3935 C   0  0  0  0  0  0  0  0  0  0  0  0
   10.5841    2.5482   -2.3277 C   0  0  0  0  0  0  0  0  0  0  0  0
    9.3196    2.7224   -2.9123 C   0  0  0  0  0  0  0  0  0  0  0  0
    8.8682    1.7802   -3.8269 C   0  0  0  0  0  0  0  0  0  0  0  0
    7.6848    1.8438   -4.4518 N   0  0  0  0  0  0  0  0  0  0  0  0
    6.8923    2.8977   -4.1378 C   0  0  0  0  0  0  0  0  0  0  0  0
    7.1979    3.9143   -3.2195 C   0  0  0  0  0  0  0  0  0  0  0  0
    6.2634    4.9811   -2.9375 N   0  0  0  0  0  0  0  0  0  0  0  0
    4.9068    4.9169   -3.2301 C   0  0  0  0  0  0  0  0  0  0  0  0
    4.3649    3.9203   -3.7190 O   0  0  0  0  0  0  0  0  0  0  0  0
    3.9871    6.0915   -2.8510 C   0  0  3  0  0  0  0  0  0  0  0  0
    4.3308    7.4586   -3.4571 C   0  0  0  0  0  0  0  0  0  0  0  0
    4.8490    8.4734   -2.4739 N   0  0  0  0  0  0  0  0  0  0  0  0
    5.1133   10.0289   -3.2218 S   0  0  0  0  0  0  0  0  0  0  0  0
    5.4621    9.7721   -4.5997 O   0  0  0  0  0  0  0  0  0  0  0  0
    4.0078   10.8970   -2.8687 O   0  0  0  0  0  0  0  0  0  0  0  0
    6.5814   10.5777   -2.3532 C   0  0  0  0  0  0  0  0  0  0  0  0
    6.9576   11.9498   -2.8760 C   0  0  0  0  0  0  0  0  0  0  0  0
    7.2758   12.0505   -4.2862 C   0  0  0  0  0  0  0  0  0  0  0  0
    7.5751   12.1729   -5.3994 N   0  0  0  0  0  0  0  0  0  0  0  0
    6.4632   13.2134   -2.1822 C   0  0  0  0  0  0  0  0  0  0  0  0
    7.8725   12.7597   -1.9592 C   0  0  0  0  0  0  0  0  0  0  0  0
    3.9760    8.5933   -1.2678 C   0  0  0  0  0  0  0  0  0  0  0  0
    3.5546    7.2802   -0.6557 C   0  0  0  0  0  0  0  0  0  0  0  0
    3.0163    7.2827    0.6441 C   0  0  0  0  0  0  0  0  0  0  0  0
    2.4838    6.1195    1.2011 C   0  0  0  0  0  0  0  0  0  0  0  0
    2.4807    4.9436    0.4613 C   0  0  0  0  0  0  0  0  0  0  0  0
    1.7828    3.5184    1.1250 Cl  0  0  0  0  0  0  0  0  0  0  0  0
    3.0078    4.9246   -0.8287 C   0  0  0  0  0  0  0  0  0  0  0  0
    3.5505    6.0924   -1.4012 C   0  0  0  0  0  0  0  0  0  0  0  0
    8.4799    3.8285   -2.5848 C   0  0  0  0  0  0  0  0  0  0  0  0
    8.9949    4.7241   -1.6114 C   0  0  0  0  0  0  0  0  0  0  0  0
   10.5178    3.1593    2.9623 H   0  0  0  0  0  0  0  0  0  0  0  0
   11.8736    3.4740    1.8461 H   0  0  0  0  0  0  0  0  0  0  0  0
   10.3666    2.6815    1.2553 H   0  0  0  0  0  0  0  0  0  0  0  0
   11.6922    5.5939    0.0631 H   0  0  0  0  0  0  0  0  0  0  0  0
   12.0293    3.2882   -0.9361 H   0  0  0  0  0  0  0  0  0  0  0  0
   11.2005    1.6872   -2.5843 H   0  0  0  0  0  0  0  0  0  0  0  0
    9.4645    0.9096   -4.0924 H   0  0  0  0  0  0  0  0  0  0  0  0
    5.9717    2.8832   -4.7104 H   0  0  0  0  0  0  0  0  0  0  0  0
    6.5849    5.7461   -2.3583 H   0  0  0  0  0  0  0  0  0  0  0  0
    3.0603    5.8295   -3.3928 H   0  0  0  0  0  0  0  0  0  0  0  0
    3.4126    7.8777   -3.8956 H   0  0  0  0  0  0  0  0  0  0  0  0
    5.0540    7.3281   -4.2691 H   0  0  0  0  0  0  0  0  0  0  0  0
    7.3763    9.8530   -2.5452 H   0  0  0  0  0  0  0  0  0  0  0  0
    6.3489   10.6009   -1.2846 H   0  0  0  0  0  0  0  0  0  0  0  0
    5.7659   13.1335   -1.3558 H   0  0  0  0  0  0  0  0  0  0  0  0
    6.3242   14.1178   -2.7706 H   0  0  0  0  0  0  0  0  0  0  0  0
    8.1281   12.3629   -0.9825 H   0  0  0  0  0  0  0  0  0  0  0  0
    8.6762   13.3395   -2.4060 H   0  0  0  0  0  0  0  0  0  0  0  0
    3.0490    9.1199   -1.5249 H   0  0  0  0  0  0  0  0  0  0  0  0
    4.5204    9.1715   -0.5124 H   0  0  0  0  0  0  0  0  0  0  0  0
    2.9748    8.2053    1.2208 H   0  0  0  0  0  0  0  0  0  0  0  0
    2.0524    6.1441    2.1983 H   0  0  0  0  0  0  0  0  0  0  0  0
    2.9563    4.0016   -1.4062 H   0  0  0  0  0  0  0  0  0  0  0  0
    8.4070    5.5728   -1.2747 H   0  0  0  0  0  0  0  0  0  0  0  0
  1  2  1  0  0  0  0
  1 39  1  0  0  0  0
  1 40  1  0  0  0  0
  1 41  1  0  0  0  0
  2  3  2  0  0  0  0
  2  4  2  0  0  0  0
  2  5  1  0  0  0  0
  5  6  1  0  0  0  0
  5 42  1  0  0  0  0
  6  7  1  0  0  0  0
  6 38  2  0  0  0  0
  7  8  2  0  0  0  0
  7 43  1  0  0  0  0
  8  9  1  0  0  0  0
  8 44  1  0  0  0  0
  9 10  1  0  0  0  0
  9 37  2  0  0  0  0
 10 11  2  0  0  0  0
 10 45  1  0  0  0  0
 11 12  1  0  0  0  0
 12 13  2  0  0  0  0
 12 46  1  0  0  0  0
 13 14  1  0  0  0  0
 13 37  1  0  0  0  0
 14 15  1  0  0  0  0
 14 47  1  0  0  0  0
 15 16  2  0  0  0  0
 15 17  1  0  0  0  0
 17 18  1  0  0  0  0
 17 36  1  0  0  0  0
 17 48  1  0  0  0  0
 18 19  1  0  0  0  0
 18 49  1  0  0  0  0
 18 50  1  0  0  0  0
 19 20  1  0  0  0  0
 19 29  1  0  0  0  0
 20 21  2  0  0  0  0
 20 22  2  0  0  0  0
 20 23  1  0  0  0  0
 23 24  1  0  0  0  0
 23 51  1  0  0  0  0
 23 52  1  0  0  0  0
 24 25  1  0  0  0  0
 24 27  1  0  0  0  0
 24 28  1  0  0  0  0
 25 26  3  0  0  0  0
 27 28  1  0  0  0  0
 27 53  1  0  0  0  0
 27 54  1  0  0  0  0
 28 55  1  0  0  0  0
 28 56  1  0  0  0  0
 29 30  1  0  0  0  0
 29 57  1  0  0  0  0
 29 58  1  0  0  0  0
 30 31  1  0  0  0  0
 30 36  2  0  0  0  0
 31 32  2  0  0  0  0
 31 59  1  0  0  0  0
 32 33  1  0  0  0  0
 32 60  1  0  0  0  0
 33 34  1  0  0  0  0
 33 35  2  0  0  0  0
 35 36  1  0  0  0  0
 35 61  1  0  0  0  0
 37 38  1  0  0  0  0
 38 62  1  0  0  0  0
M  END
$$$$
