
 OpenBabel07202414173D

 34 35  0  0  0  0  0  0  0  0999 V2000
    0.8439    0.3872    0.0768 Cl  0  0  0  0  0  0  0  0  0  0  0  0
    2.5892    0.6305    0.2813 C   0  0  0  0  0  0  0  0  0  0  0  0
    3.1486   -0.1757    1.4449 C   0  0  0  0  0  0  0  0  0  0  0  0
    2.4428   -0.8446    2.1971 O   0  0  0  0  0  0  0  0  0  0  0  0
    4.5345   -0.1277    1.6115 N   0  0  0  0  0  0  0  0  0  0  0  0
    5.4588    0.7113    0.8433 C   0  0  0  0  0  0  0  0  0  0  0  0
    6.6312   -0.1284    0.3092 C   0  0  0  0  0  0  0  0  0  0  0  0
    7.3709   -0.8666    1.3584 N   0  0  0  0  0  0  0  0  0  0  0  0
    8.1133    0.0035    2.2895 C   0  0  0  0  0  0  0  0  0  0  0  0
    9.1350    0.9007    1.6224 C   0  0  0  0  0  0  0  0  0  0  0  0
    9.0051    2.2967    1.6916 C   0  0  0  0  0  0  0  0  0  0  0  0
    9.9218    3.1241    1.0400 C   0  0  0  0  0  0  0  0  0  0  0  0
    9.7113    4.8309    1.0945 Cl  0  0  0  0  0  0  0  0  0  0  0  0
   10.9943    2.5814    0.3399 C   0  0  0  0  0  0  0  0  0  0  0  0
   11.1468    1.1979    0.2979 C   0  0  0  0  0  0  0  0  0  0  0  0
   12.4888    0.5170   -0.5375 Cl  0  0  0  0  0  0  0  0  0  0  0  0
   10.2240    0.3578    0.9254 C   0  0  0  0  0  0  0  0  0  0  0  0
    6.3954   -1.7074    2.1041 C   0  0  0  0  0  0  0  0  0  0  0  0
    5.1654   -0.9461    2.6546 C   0  0  0  0  0  0  0  0  0  0  0  0
    2.7593    1.6965    0.4531 H   0  0  0  0  0  0  0  0  0  0  0  0
    3.0664    0.3111   -0.6487 H   0  0  0  0  0  0  0  0  0  0  0  0
    5.8154    1.5028    1.5160 H   0  0  0  0  0  0  0  0  0  0  0  0
    4.9626    1.2129    0.0106 H   0  0  0  0  0  0  0  0  0  0  0  0
    7.3044    0.4952   -0.2893 H   0  0  0  0  0  0  0  0  0  0  0  0
    6.2263   -0.8672   -0.3958 H   0  0  0  0  0  0  0  0  0  0  0  0
    8.6611   -0.6242    3.0042 H   0  0  0  0  0  0  0  0  0  0  0  0
    7.4374    0.6207    2.8920 H   0  0  0  0  0  0  0  0  0  0  0  0
    8.1863    2.7445    2.2507 H   0  0  0  0  0  0  0  0  0  0  0  0
   11.7039    3.2289   -0.1672 H   0  0  0  0  0  0  0  0  0  0  0  0
   10.3443   -0.7227    0.8681 H   0  0  0  0  0  0  0  0  0  0  0  0
    6.8994   -2.2427    2.9183 H   0  0  0  0  0  0  0  0  0  0  0  0
    6.0344   -2.4845    1.4171 H   0  0  0  0  0  0  0  0  0  0  0  0
    5.4589   -0.2681    3.4651 H   0  0  0  0  0  0  0  0  0  0  0  0
    4.4569   -1.6628    3.0771 H   0  0  0  0  0  0  0  0  0  0  0  0
  1  2  1  0  0  0  0
  2  3  1  0  0  0  0
  2 20  1  0  0  0  0
  2 21  1  0  0  0  0
  3  4  2  0  0  0  0
  3  5  1  0  0  0  0
  5  6  1  0  0  0  0
  5 19  1  0  0  0  0
  6  7  1  0  0  0  0
  6 22  1  0  0  0  0
  6 23  1  0  0  0  0
  7  8  1  0  0  0  0
  7 24  1  0  0  0  0
  7 25  1  0  0  0  0
  8  9  1  0  0  0  0
  8 18  1  0  0  0  0
  9 10  1  0  0  0  0
  9 26  1  0  0  0  0
  9 27  1  0  0  0  0
 10 11  1  0  0  0  0
 10 17  2  0  0  0  0
 11 12  2  0  0  0  0
 11 28  1  0  0  0  0
 12 13  1  0  0  0  0
 12 14  1  0  0  0  0
 14 15  2  0  0  0  0
 14 29  1  0  0  0  0
 15 16  1  0  0  0  0
 15 17  1  0  0  0  0
 17 30  1  0  0  0  0
 18 19  1  0  0  0  0
 18 31  1  0  0  0  0
 18 32  1  0  0  0  0
 19 33  1  0  0  0  0
 19 34  1  0  0  0  0
M  END
$$$$
