
 OpenBabel07202414153D

 60 62  0  0  1  0  0  0  0  0999 V2000
   11.6205    0.2461    0.1291 C   0  0  0  0  0  0  0  0  0  0  0  0
   10.7297    0.2897   -1.4446 S   0  0  0  0  0  0  0  0  0  0  0  0
    9.0216    0.4034   -0.7978 C   0  0  0  0  0  0  0  0  0  0  0  0
    8.0019    0.5585   -1.9331 C   0  0  0  0  0  0  0  0  0  0  0  0
    7.9540   -0.5736   -2.8432 N   0  0  0  0  0  0  0  0  0  0  0  0
    7.2039   -1.6895   -2.5576 C   0  0  0  0  0  0  0  0  0  0  0  0
    6.5253   -1.7646   -1.5296 O   0  0  0  0  0  0  0  0  0  0  0  0
    7.3255   -2.8917   -3.5352 C   0  0  3  0  0  0  0  0  0  0  0  0
    6.9560   -2.5098   -4.9508 N   0  0  0  0  0  0  0  0  0  0  0  0
    7.7764   -2.0159   -5.9957 C   0  0  0  0  0  0  0  0  0  0  0  0
    7.3276   -1.7397   -7.1114 O   0  0  0  0  0  0  0  0  0  0  0  0
    9.2137   -1.8510   -5.8213 C   0  0  0  0  0  0  0  0  0  0  0  0
   10.1270   -1.9543   -6.8530 C   0  0  0  0  0  0  0  0  0  0  0  0
   11.3767   -1.8282   -6.3374 O   0  0  0  0  0  0  0  0  0  0  0  0
   11.1534   -1.6228   -5.0114 C   0  0  0  0  0  0  0  0  0  0  0  0
    9.8867   -1.5615   -4.6542 N   0  0  0  0  0  0  0  0  0  0  0  0
    5.5302   -2.5246   -5.2344 C   0  0  0  0  0  0  0  0  0  0  0  0
    5.0528   -3.1397   -6.3963 C   0  0  0  0  0  0  0  0  0  0  0  0
    3.6984   -3.0624   -6.7597 C   0  0  0  0  0  0  0  0  0  0  0  0
    2.7652   -2.3623   -5.9830 C   0  0  0  0  0  0  0  0  0  0  0  0
    1.2911   -2.2135   -6.3934 C   0  0  0  0  0  0  0  0  0  0  0  0
    0.9427   -2.9570   -7.7044 C   0  0  0  0  0  0  0  0  0  0  0  0
    0.3782   -2.7812   -5.2854 C   0  0  0  0  0  0  0  0  0  0  0  0
    0.9331   -0.7254   -6.6145 C   0  0  0  0  0  0  0  0  0  0  0  0
    3.2479   -1.7784   -4.7993 C   0  0  0  0  0  0  0  0  0  0  0  0
    4.5971   -1.8728   -4.4209 C   0  0  0  0  0  0  0  0  0  0  0  0
    8.5904   -3.7113   -3.2729 C   0  0  0  0  0  0  0  0  0  0  0  0
    9.2093   -3.6919   -2.0083 C   0  0  0  0  0  0  0  0  0  0  0  0
   10.4545   -4.2804   -1.8147 C   0  0  0  0  0  0  0  0  0  0  0  0
   11.0363   -4.9269   -2.8853 C   0  0  0  0  0  0  0  0  0  0  0  0
   10.4223   -5.0911   -4.0756 N   0  0  0  0  0  0  0  0  0  0  0  0
    9.2054   -4.5099   -4.2300 C   0  0  0  0  0  0  0  0  0  0  0  0
   12.6937    0.1816   -0.0708 H   0  0  0  0  0  0  0  0  0  0  0  0
   11.3235   -0.6290    0.7125 H   0  0  0  0  0  0  0  0  0  0  0  0
   11.4307    1.1563    0.7041 H   0  0  0  0  0  0  0  0  0  0  0  0
    8.9569    1.2772   -0.1405 H   0  0  0  0  0  0  0  0  0  0  0  0
    8.8100   -0.4925   -0.2049 H   0  0  0  0  0  0  0  0  0  0  0  0
    8.2166    1.4476   -2.5335 H   0  0  0  0  0  0  0  0  0  0  0  0
    7.0061    0.6908   -1.4935 H   0  0  0  0  0  0  0  0  0  0  0  0
    8.7522   -0.7017   -3.4692 H   0  0  0  0  0  0  0  0  0  0  0  0
    6.5272   -3.5852   -3.2230 H   0  0  0  0  0  0  0  0  0  0  0  0
   10.0494   -2.1415   -7.9162 H   0  0  0  0  0  0  0  0  0  0  0  0
   12.0304   -1.5400   -4.3861 H   0  0  0  0  0  0  0  0  0  0  0  0
    5.7280   -3.6871   -7.0519 H   0  0  0  0  0  0  0  0  0  0  0  0
    3.4136   -3.5518   -7.6875 H   0  0  0  0  0  0  0  0  0  0  0  0
    1.1388   -4.0320   -7.6193 H   0  0  0  0  0  0  0  0  0  0  0  0
    1.5222   -2.5702   -8.5517 H   0  0  0  0  0  0  0  0  0  0  0  0
   -0.1165   -2.8401   -7.9615 H   0  0  0  0  0  0  0  0  0  0  0  0
    0.6089   -3.8344   -5.0847 H   0  0  0  0  0  0  0  0  0  0  0  0
   -0.6778   -2.7169   -5.5742 H   0  0  0  0  0  0  0  0  0  0  0  0
    0.4845   -2.2325   -4.3431 H   0  0  0  0  0  0  0  0  0  0  0  0
    1.5372   -0.2835   -7.4157 H   0  0  0  0  0  0  0  0  0  0  0  0
    1.0840   -0.1217   -5.7137 H   0  0  0  0  0  0  0  0  0  0  0  0
   -0.1220   -0.6149   -6.9005 H   0  0  0  0  0  0  0  0  0  0  0  0
    2.5807   -1.2068   -4.1550 H   0  0  0  0  0  0  0  0  0  0  0  0
    4.8950   -1.3382   -3.5251 H   0  0  0  0  0  0  0  0  0  0  0  0
    8.7493   -3.1854   -1.1614 H   0  0  0  0  0  0  0  0  0  0  0  0
   10.9612   -4.2100   -0.8588 H   0  0  0  0  0  0  0  0  0  0  0  0
   12.0360   -5.3441   -2.8095 H   0  0  0  0  0  0  0  0  0  0  0  0
    8.7672   -4.6719   -5.2104 H   0  0  0  0  0  0  0  0  0  0  0  0
  1  2  1  0  0  0  0
  1 33  1  0  0  0  0
  1 34  1  0  0  0  0
  1 35  1  0  0  0  0
  2  3  1  0  0  0  0
  3  4  1  0  0  0  0
  3 36  1  0  0  0  0
  3 37  1  0  0  0  0
  4  5  1  0  0  0  0
  4 38  1  0  0  0  0
  4 39  1  0  0  0  0
  5  6  1  0  0  0  0
  5 40  1  0  0  0  0
  6  7  2  0  0  0  0
  6  8  1  0  0  0  0
  8  9  1  0  0  0  0
  8 27  1  0  0  0  0
  8 41  1  0  0  0  0
  9 10  1  0  0  0  0
  9 17  1  0  0  0  0
 10 11  2  0  0  0  0
 10 12  1  0  0  0  0
 12 13  2  0  0  0  0
 12 16  1  0  0  0  0
 13 14  1  0  0  0  0
 13 42  1  0  0  0  0
 14 15  1  0  0  0  0
 15 16  2  0  0  0  0
 15 43  1  0  0  0  0
 17 18  1  0  0  0  0
 17 26  2  0  0  0  0
 18 19  2  0  0  0  0
 18 44  1  0  0  0  0
 19 20  1  0  0  0  0
 19 45  1  0  0  0  0
 20 21  1  0  0  0  0
 20 25  2  0  0  0  0
 21 22  1  0  0  0  0
 21 23  1  0  0  0  0
 21 24  1  0  0  0  0
 22 46  1  0  0  0  0
 22 47  1  0  0  0  0
 22 48  1  0  0  0  0
 23 49  1  0  0  0  0
 23 50  1  0  0  0  0
 23 51  1  0  0  0  0
 24 52  1  0  0  0  0
 24 53  1  0  0  0  0
 24 54  1  0  0  0  0
 25 26  1  0  0  0  0
 25 55  1  0  0  0  0
 26 56  1  0  0  0  0
 27 28  1  0  0  0  0
 27 32  2  0  0  0  0
 28 29  2  0  0  0  0
 28 57  1  0  0  0  0
 29 30  1  0  0  0  0
 29 58  1  0  0  0  0
 30 31  2  0  0  0  0
 30 59  1  0  0  0  0
 31 32  1  0  0  0  0
 32 60  1  0  0  0  0
M  END
$$$$
