
 OpenBabel07202414163D

 28 30  0  0  0  0  0  0  0  0999 V2000
   -0.8640    1.5523    0.2822 C   0  0  0  0  0  0  0  0  0  0  0  0
    0.0179    0.4403    0.7318 C   0  0  0  0  0  0  0  0  0  0  0  0
    0.5292   -0.4790   -0.0611 N   0  0  0  0  0  0  0  0  0  0  0  0
    1.3261   -1.3508    0.6733 C   0  0  0  0  0  0  0  0  0  0  0  0
    1.3883   -1.0708    2.0266 C   0  0  0  0  0  0  0  0  0  0  0  0
    0.4449    0.3090    2.3906 S   0  0  0  0  0  0  0  0  0  0  0  0
    2.0486   -2.4550   -0.0330 C   0  0  0  0  0  0  0  0  0  0  0  0
    1.2481   -3.6555   -0.0465 N   0  0  0  0  0  0  0  0  0  0  0  0
    0.3334   -4.0177   -1.0487 C   0  0  0  0  0  0  0  0  0  0  0  0
    0.0041   -3.3440   -2.2098 C   0  0  0  0  0  0  0  0  0  0  0  0
   -0.9355   -3.9342   -3.0675 C   0  0  0  0  0  0  0  0  0  0  0  0
   -1.5276   -5.1720   -2.7487 C   0  0  0  0  0  0  0  0  0  0  0  0
   -1.1990   -5.8480   -1.5755 C   0  0  0  0  0  0  0  0  0  0  0  0
   -0.2696   -5.2411   -0.7537 C   0  0  0  0  0  0  0  0  0  0  0  0
    0.2761   -5.6990    0.5245 C   0  0  0  0  0  0  0  0  0  0  0  0
    0.0066   -6.7238    1.1059 O   0  0  0  0  0  0  0  0  0  0  0  0
    1.2799   -4.6019    0.9629 C   0  0  0  0  0  0  0  0  0  0  0  0
    1.9391   -4.6159    1.9800 O   0  0  0  0  0  0  0  0  0  0  0  0
   -2.7945   -5.9257   -3.9338 Br  0  0  0  0  0  0  0  0  0  0  0  0
   -1.0634    1.4733   -0.7910 H   0  0  0  0  0  0  0  0  0  0  0  0
   -0.3885    2.5216    0.4659 H   0  0  0  0  0  0  0  0  0  0  0  0
   -1.8245    1.5277    0.8069 H   0  0  0  0  0  0  0  0  0  0  0  0
    1.9368   -1.5977    2.7959 H   0  0  0  0  0  0  0  0  0  0  0  0
    2.9893   -2.6673    0.4891 H   0  0  0  0  0  0  0  0  0  0  0  0
    2.3068   -2.1612   -1.0555 H   0  0  0  0  0  0  0  0  0  0  0  0
    0.4415   -2.3834   -2.4631 H   0  0  0  0  0  0  0  0  0  0  0  0
   -1.2076   -3.4205   -3.9880 H   0  0  0  0  0  0  0  0  0  0  0  0
   -1.6426   -6.8019   -1.3102 H   0  0  0  0  0  0  0  0  0  0  0  0
  1  2  1  0  0  0  0
  1 20  1  0  0  0  0
  1 21  1  0  0  0  0
  1 22  1  0  0  0  0
  2  3  2  0  0  0  0
  2  6  1  0  0  0  0
  3  4  1  0  0  0  0
  4  5  2  0  0  0  0
  4  7  1  0  0  0  0
  5  6  1  0  0  0  0
  5 23  1  0  0  0  0
  7  8  1  0  0  0  0
  7 24  1  0  0  0  0
  7 25  1  0  0  0  0
  8  9  1  0  0  0  0
  8 17  1  0  0  0  0
  9 10  1  0  0  0  0
  9 14  2  0  0  0  0
 10 11  2  0  0  0  0
 10 26  1  0  0  0  0
 11 12  1  0  0  0  0
 11 27  1  0  0  0  0
 12 13  2  0  0  0  0
 12 19  1  0  0  0  0
 13 14  1  0  0  0  0
 13 28  1  0  0  0  0
 14 15  1  0  0  0  0
 15 16  2  0  0  0  0
 15 17  1  0  0  0  0
 17 18  2  0  0  0  0
M  END
$$$$
