
 OpenBabel07202414123D

 67 69  0  0  1  0  0  0  0  0999 V2000
    3.5496    0.5531   -2.1222 C   0  0  0  0  0  0  0  0  0  0  0  0
    2.6410   -0.0180   -1.0164 C   0  0  0  0  0  0  0  0  0  0  0  0
    2.6430    0.9394    0.1947 C   0  0  0  0  0  0  0  0  0  0  0  0
    1.1895    0.0001   -1.5731 C   0  0  0  0  0  0  0  0  0  0  0  0
    3.0749   -1.4995   -0.6861 C   0  0  2  0  0  0  0  0  0  0  0  0
    2.1094   -2.1090    0.2304 N   0  0  0  0  0  0  0  0  0  0  0  0
    1.6048   -3.3885    0.0449 C   0  0  0  0  0  0  0  0  0  0  0  0
    1.9179   -4.0666   -0.9358 O   0  0  0  0  0  0  0  0  0  0  0  0
    0.6250   -3.8724    1.1377 C   0  0  0  0  0  0  0  0  0  0  0  0
    0.4609   -2.9440    2.1250 F   0  0  0  0  0  0  0  0  0  0  0  0
   -0.6156   -4.1293    0.6424 F   0  0  0  0  0  0  0  0  0  0  0  0
    1.0502   -5.0109    1.7489 F   0  0  0  0  0  0  0  0  0  0  0  0
    4.4746   -1.6927    0.0058 C   0  0  0  0  0  0  0  0  0  0  0  0
    4.7406   -1.0676    1.0374 O   0  0  0  0  0  0  0  0  0  0  0  0
    5.3937   -2.6165   -0.4845 N   0  0  0  0  0  0  0  0  0  0  0  0
    5.0996   -3.6670   -1.4551 C   0  0  0  0  0  0  0  0  0  0  0  0
    6.4450   -4.2690   -1.7503 C   0  0  1  0  0  0  0  0  0  0  0  0
    7.3628   -3.8886   -0.6216 C   0  0  1  0  0  0  0  0  0  0  0  0
    6.5650   -3.0170    0.3369 C   0  0  1  0  0  0  0  0  0  0  0  0
    7.4997   -1.9047    0.8675 C   0  0  0  0  0  0  0  0  0  0  0  0
    8.2629   -2.0906    1.8138 O   0  0  0  0  0  0  0  0  0  0  0  0
    7.5708   -0.7829    0.0725 N   0  0  0  0  0  0  0  0  0  0  0  0
    8.2587    0.4137    0.5449 C   0  0  1  0  0  0  0  0  0  0  0  0
    9.6884    0.4618   -0.0330 C   0  0  0  0  0  0  0  0  0  0  0  0
   10.4879    1.7110    0.3541 C   0  0  2  0  0  0  0  0  0  0  0  0
   11.9070    1.7240   -0.2328 C   0  0  0  0  0  0  0  0  0  0  0  0
   12.7044    2.5445    0.7653 C   0  0  0  0  0  0  0  0  0  0  0  0
   12.0419    2.2939    2.0071 N   0  0  0  0  0  0  0  0  0  0  0  0
   10.7524    1.8433    1.8409 C   0  0  0  0  0  0  0  0  0  0  0  0
    9.9538    1.6657    2.7415 O   0  0  0  0  0  0  0  0  0  0  0  0
    7.4854    1.6044    0.1337 C   0  0  0  0  0  0  0  0  0  0  0  0
    6.8797    2.5139   -0.2538 N   0  0  0  0  0  0  0  0  0  0  0  0
    7.1544   -5.3563   -0.9520 C   0  0  0  0  0  0  0  0  0  0  0  0
    6.4006   -6.2635   -0.0229 C   0  0  0  0  0  0  0  0  0  0  0  0
    8.3246   -6.0454   -1.6281 C   0  0  0  0  0  0  0  0  0  0  0  0
    3.4077    1.6349   -2.2359 H   0  0  0  0  0  0  0  0  0  0  0  0
    3.3157    0.0983   -3.0923 H   0  0  0  0  0  0  0  0  0  0  0  0
    4.6081    0.3766   -1.9139 H   0  0  0  0  0  0  0  0  0  0  0  0
    2.4296    1.9686   -0.1231 H   0  0  0  0  0  0  0  0  0  0  0  0
    3.6017    0.9708    0.7137 H   0  0  0  0  0  0  0  0  0  0  0  0
    1.8670    0.6711    0.9209 H   0  0  0  0  0  0  0  0  0  0  0  0
    0.9185    1.0005   -1.9343 H   0  0  0  0  0  0  0  0  0  0  0  0
    0.4549   -0.2698   -0.8052 H   0  0  0  0  0  0  0  0  0  0  0  0
    1.0708   -0.6970   -2.4094 H   0  0  0  0  0  0  0  0  0  0  0  0
    3.0579   -2.0544   -1.6269 H   0  0  0  0  0  0  0  0  0  0  0  0
    1.9545   -1.6528    1.1278 H   0  0  0  0  0  0  0  0  0  0  0  0
    4.6281   -3.2548   -2.3490 H   0  0  0  0  0  0  0  0  0  0  0  0
    4.4320   -4.3980   -0.9892 H   0  0  0  0  0  0  0  0  0  0  0  0
    6.7737   -4.0537   -2.7588 H   0  0  0  0  0  0  0  0  0  0  0  0
    8.3258   -3.4562   -0.8739 H   0  0  0  0  0  0  0  0  0  0  0  0
    6.1906   -3.5844    1.1974 H   0  0  0  0  0  0  0  0  0  0  0  0
    6.8540   -0.6891   -0.6374 H   0  0  0  0  0  0  0  0  0  0  0  0
    8.2914    0.3648    1.6368 H   0  0  0  0  0  0  0  0  0  0  0  0
    9.6380    0.4111   -1.1305 H   0  0  0  0  0  0  0  0  0  0  0  0
   10.2312   -0.4386    0.2855 H   0  0  0  0  0  0  0  0  0  0  0  0
    9.9702    2.6238    0.0353 H   0  0  0  0  0  0  0  0  0  0  0  0
   11.9391    2.1546   -1.2389 H   0  0  0  0  0  0  0  0  0  0  0  0
   12.3148    0.7075   -0.2902 H   0  0  0  0  0  0  0  0  0  0  0  0
   12.6493    3.6170    0.5546 H   0  0  0  0  0  0  0  0  0  0  0  0
   13.7496    2.2329    0.8322 H   0  0  0  0  0  0  0  0  0  0  0  0
   12.3706    2.5712    2.9246 H   0  0  0  0  0  0  0  0  0  0  0  0
    5.5904   -5.7648    0.5118 H   0  0  0  0  0  0  0  0  0  0  0  0
    7.0833   -6.6863    0.7233 H   0  0  0  0  0  0  0  0  0  0  0  0
    5.9715   -7.0979   -0.5886 H   0  0  0  0  0  0  0  0  0  0  0  0
    8.8850   -5.3611   -2.2773 H   0  0  0  0  0  0  0  0  0  0  0  0
    7.9771   -6.8792   -2.2455 H   0  0  0  0  0  0  0  0  0  0  0  0
    9.0252   -6.4341   -0.8808 H   0  0  0  0  0  0  0  0  0  0  0  0
  1  2  1  0  0  0  0
  1 36  1  0  0  0  0
  1 37  1  0  0  0  0
  1 38  1  0  0  0  0
  2  3  1  0  0  0  0
  2  4  1  0  0  0  0
  3 39  1  0  0  0  0
  3 40  1  0  0  0  0
  3 41  1  0  0  0  0
  4 42  1  0  0  0  0
  4 43  1  0  0  0  0
  4 44  1  0  0  0  0
  5 13  1  0  0  0  0
  5  6  1  0  0  0  0
  5  2  1  0  0  0  0
  5 45  1  6  0  0  0
  6  7  1  0  0  0  0
  6 46  1  0  0  0  0
  7  8  2  0  0  0  0
  7  9  1  0  0  0  0
  9 10  1  0  0  0  0
  9 11  1  0  0  0  0
  9 12  1  0  0  0  0
 13 14  2  0  0  0  0
 13 15  1  0  0  0  0
 15 16  1  0  0  0  0
 15 19  1  0  0  0  0
 16 17  1  0  0  0  0
 16 47  1  0  0  0  0
 16 48  1  0  0  0  0
 17 18  1  0  0  0  0
 17 33  1  0  0  0  0
 17 49  1  6  0  0  0
 18 19  1  0  0  0  0
 18 33  1  0  0  0  0
 18 50  1  6  0  0  0
 19 20  1  0  0  0  0
 19 51  1  1  0  0  0
 20 21  2  0  0  0  0
 20 22  1  0  0  0  0
 22 23  1  0  0  0  0
 22 52  1  0  0  0  0
 23 24  1  0  0  0  0
 23 31  1  0  0  0  0
 23 53  1  1  0  0  0
 24 25  1  0  0  0  0
 24 54  1  0  0  0  0
 24 55  1  0  0  0  0
 25 26  1  0  0  0  0
 25 29  1  0  0  0  0
 25 56  1  6  0  0  0
 26 27  1  0  0  0  0
 26 57  1  0  0  0  0
 26 58  1  0  0  0  0
 27 28  1  0  0  0  0
 27 59  1  0  0  0  0
 27 60  1  0  0  0  0
 28 29  1  0  0  0  0
 28 61  1  0  0  0  0
 29 30  2  0  0  0  0
 31 32  3  0  0  0  0
 33 34  1  0  0  0  0
 33 35  1  0  0  0  0
 34 62  1  0  0  0  0
 34 63  1  0  0  0  0
 34 64  1  0  0  0  0
 35 65  1  0  0  0  0
 35 66  1  0  0  0  0
 35 67  1  0  0  0  0
M  END
$$$$
