
 OpenBabel07202414153D

 47 50  0  0  1  0  0  0  0  0999 V2000
    3.0267   -0.0238   -1.4550 C   0  0  0  0  0  0  0  0  0  0  0  0
    2.4953   -0.1218   -0.0070 C   0  0  1  0  0  0  0  0  0  0  0  0
    0.9654   -0.0960   -0.0223 C   0  0  0  0  0  0  0  0  0  0  0  0
    0.2617    1.1241   -0.0061 C   0  0  0  0  0  0  0  0  0  0  0  0
   -1.1362    1.1515    0.0103 C   0  0  0  0  0  0  0  0  0  0  0  0
   -1.8465   -0.0391   -0.0040 C   0  0  0  0  0  0  0  0  0  0  0  0
   -3.1859   -0.0126    0.0209 F   0  0  0  0  0  0  0  0  0  0  0  0
   -1.1849   -1.2571   -0.0502 C   0  0  0  0  0  0  0  0  0  0  0  0
    0.2121   -1.2854   -0.0710 C   0  0  0  0  0  0  0  0  0  0  0  0
    3.0939   -1.3775    0.6869 C   0  0  0  0  0  0  0  0  0  0  0  0
    4.4146   -0.9275    1.3197 C   0  0  0  0  0  0  0  0  0  0  0  0
    4.4494    0.5107    1.1577 N   0  0  0  0  0  0  0  0  0  0  0  0
    5.5554    1.3332    1.1530 C   0  0  0  0  0  0  0  0  0  0  0  0
    5.4591    2.5490    0.9726 O   0  0  0  0  0  0  0  0  0  0  0  0
    6.9269    0.6902    1.3283 C   0  0  0  0  0  0  0  0  0  0  0  0
    7.6117    0.2626    0.0417 C   0  0  0  0  0  0  0  0  0  0  0  0
    7.3607    0.9395   -1.1554 C   0  0  0  0  0  0  0  0  0  0  0  0
    7.9116    0.6271   -2.3490 N   0  0  0  0  0  0  0  0  0  0  0  0
    8.7914   -0.3936   -2.3590 C   0  0  0  0  0  0  0  0  0  0  0  0
    9.1733   -1.1180   -1.2310 C   0  0  0  0  0  0  0  0  0  0  0  0
   10.1288   -2.1471   -1.3208 C   0  0  0  0  0  0  0  0  0  0  0  0
   10.5286   -2.8422   -0.1810 C   0  0  0  0  0  0  0  0  0  0  0  0
    9.9802   -2.5130    1.0493 C   0  0  0  0  0  0  0  0  0  0  0  0
    9.0230   -1.4972    1.1441 C   0  0  0  0  0  0  0  0  0  0  0  0
    8.5839   -0.7763    0.0073 C   0  0  0  0  0  0  0  0  0  0  0  0
    3.1263    1.0123    0.8319 C   0  0  0  0  0  0  0  0  0  0  0  0
    4.1222   -0.0365   -1.4861 H   0  0  0  0  0  0  0  0  0  0  0  0
    2.7001    0.9048   -1.9359 H   0  0  0  0  0  0  0  0  0  0  0  0
    2.6742   -0.8597   -2.0698 H   0  0  0  0  0  0  0  0  0  0  0  0
    0.7899    2.0754   -0.0053 H   0  0  0  0  0  0  0  0  0  0  0  0
   -1.6710    2.0960    0.0353 H   0  0  0  0  0  0  0  0  0  0  0  0
   -1.7599   -2.1784   -0.0671 H   0  0  0  0  0  0  0  0  0  0  0  0
    0.7020   -2.2553   -0.1192 H   0  0  0  0  0  0  0  0  0  0  0  0
    3.2645   -2.1997   -0.0177 H   0  0  0  0  0  0  0  0  0  0  0  0
    2.4399   -1.7635    1.4768 H   0  0  0  0  0  0  0  0  0  0  0  0
    5.2776   -1.4085    0.8617 H   0  0  0  0  0  0  0  0  0  0  0  0
    4.4132   -1.1457    2.3951 H   0  0  0  0  0  0  0  0  0  0  0  0
    6.8099   -0.1534    2.0139 H   0  0  0  0  0  0  0  0  0  0  0  0
    7.5699    1.4168    1.8402 H   0  0  0  0  0  0  0  0  0  0  0  0
    6.6874    1.7938   -1.2028 H   0  0  0  0  0  0  0  0  0  0  0  0
    9.2133   -0.6124   -3.3393 H   0  0  0  0  0  0  0  0  0  0  0  0
   10.5770   -2.4062   -2.2776 H   0  0  0  0  0  0  0  0  0  0  0  0
   11.2756   -3.6299   -0.2564 H   0  0  0  0  0  0  0  0  0  0  0  0
   10.3001   -3.0405    1.9452 H   0  0  0  0  0  0  0  0  0  0  0  0
    8.6402   -1.2671    2.1351 H   0  0  0  0  0  0  0  0  0  0  0  0
    3.1711    1.9700    0.3031 H   0  0  0  0  0  0  0  0  0  0  0  0
    2.5935    1.1609    1.7796 H   0  0  0  0  0  0  0  0  0  0  0  0
  1 27  1  0  0  0  0
  1 28  1  0  0  0  0
  1 29  1  0  0  0  0
  2 10  1  0  0  0  0
  2 26  1  0  0  0  0
  2  3  1  0  0  0  0
  2  1  1  6  0  0  0
  3  4  1  0  0  0  0
  3  9  2  0  0  0  0
  4  5  2  0  0  0  0
  4 30  1  0  0  0  0
  5  6  1  0  0  0  0
  5 31  1  0  0  0  0
  6  7  1  0  0  0  0
  6  8  2  0  0  0  0
  8  9  1  0  0  0  0
  8 32  1  0  0  0  0
  9 33  1  0  0  0  0
 10 11  1  0  0  0  0
 10 34  1  0  0  0  0
 10 35  1  0  0  0  0
 11 12  1  0  0  0  0
 11 36  1  0  0  0  0
 11 37  1  0  0  0  0
 12 13  1  0  0  0  0
 12 26  1  0  0  0  0
 13 14  2  0  0  0  0
 13 15  1  0  0  0  0
 15 16  1  0  0  0  0
 15 38  1  0  0  0  0
 15 39  1  0  0  0  0
 16 17  1  0  0  0  0
 16 25  2  0  0  0  0
 17 18  2  0  0  0  0
 17 40  1  0  0  0  0
 18 19  1  0  0  0  0
 19 20  2  0  0  0  0
 19 41  1  0  0  0  0
 20 21  1  0  0  0  0
 20 25  1  0  0  0  0
 21 22  2  0  0  0  0
 21 42  1  0  0  0  0
 22 23  1  0  0  0  0
 22 43  1  0  0  0  0
 23 24  2  0  0  0  0
 23 44  1  0  0  0  0
 24 25  1  0  0  0  0
 24 45  1  0  0  0  0
 26 46  1  0  0  0  0
 26 47  1  0  0  0  0
M  END
$$$$
