
 OpenBabel07202414173D

 45 48  0  0  0  0  0  0  0  0999 V2000
    1.7266   -2.3262   -1.8174 Cl  0  0  0  0  0  0  0  0  0  0  0  0
    1.2841   -1.0245   -0.7819 C   0  0  0  0  0  0  0  0  0  0  0  0
    1.9376    0.2048   -0.9015 C   0  0  0  0  0  0  0  0  0  0  0  0
    1.6175    1.2648   -0.0407 C   0  0  0  0  0  0  0  0  0  0  0  0
    2.3665    2.5752   -0.1209 C   0  0  0  0  0  0  0  0  0  0  0  0
    1.4832    3.7988   -0.3053 C   0  0  0  0  0  0  0  0  0  0  0  0
    1.1456    4.4972    0.6471 O   0  0  0  0  0  0  0  0  0  0  0  0
    1.0866    4.0119   -1.6149 N   0  0  0  0  0  0  0  0  0  0  0  0
    0.3060    5.1312   -2.0023 C   0  0  0  0  0  0  0  0  0  0  0  0
    0.6142    6.4140   -1.5447 C   0  0  0  0  0  0  0  0  0  0  0  0
   -0.0448    7.5370   -1.9146 N   0  0  0  0  0  0  0  0  0  0  0  0
   -1.0873    7.3699   -2.7552 C   0  0  0  0  0  0  0  0  0  0  0  0
   -1.5102    6.1374   -3.2614 C   0  0  0  0  0  0  0  0  0  0  0  0
   -2.6401    6.0334   -4.0917 C   0  0  0  0  0  0  0  0  0  0  0  0
   -3.0752    4.7891   -4.5465 C   0  0  0  0  0  0  0  0  0  0  0  0
   -2.3830    3.6411   -4.1841 C   0  0  0  0  0  0  0  0  0  0  0  0
   -1.2541    3.7342   -3.3683 C   0  0  0  0  0  0  0  0  0  0  0  0
   -0.7878    4.9805   -2.8848 C   0  0  0  0  0  0  0  0  0  0  0  0
    0.6383    1.0568    0.9427 C   0  0  0  0  0  0  0  0  0  0  0  0
   -0.0604   -0.1563    1.0141 C   0  0  0  0  0  0  0  0  0  0  0  0
   -1.0526   -0.4207    1.9313 O   0  0  0  0  0  0  0  0  0  0  0  0
   -1.9043    0.5782    2.3610 C   0  0  0  0  0  0  0  0  0  0  0  0
   -2.3195    1.6406    1.6491 C   0  0  0  0  0  0  0  0  0  0  0  0
   -3.1787    2.6308    2.2564 C   0  0  0  0  0  0  0  0  0  0  0  0
   -3.6393    2.4601    3.5019 C   0  0  0  0  0  0  0  0  0  0  0  0
   -3.2686    1.2358    4.2575 C   0  0  0  0  0  0  0  0  0  0  0  0
   -3.7095    1.0218    5.3799 O   0  0  0  0  0  0  0  0  0  0  0  0
   -2.4007    0.3830    3.6225 N   0  0  0  0  0  0  0  0  0  0  0  0
    0.2849   -1.2091    0.1689 C   0  0  0  0  0  0  0  0  0  0  0  0
    2.7180    0.3205   -1.6506 H   0  0  0  0  0  0  0  0  0  0  0  0
    3.0952    2.5549   -0.9401 H   0  0  0  0  0  0  0  0  0  0  0  0
    2.9447    2.7109    0.8009 H   0  0  0  0  0  0  0  0  0  0  0  0
    1.0683    3.2006   -2.2176 H   0  0  0  0  0  0  0  0  0  0  0  0
    1.4550    6.5932   -0.8798 H   0  0  0  0  0  0  0  0  0  0  0  0
   -1.6063    8.2908   -3.0089 H   0  0  0  0  0  0  0  0  0  0  0  0
   -3.2042    6.9215   -4.3713 H   0  0  0  0  0  0  0  0  0  0  0  0
   -3.9609    4.7156   -5.1724 H   0  0  0  0  0  0  0  0  0  0  0  0
   -2.7277    2.6667   -4.5226 H   0  0  0  0  0  0  0  0  0  0  0  0
   -0.7674    2.8053   -3.0864 H   0  0  0  0  0  0  0  0  0  0  0  0
    0.4276    1.8505    1.6588 H   0  0  0  0  0  0  0  0  0  0  0  0
   -2.0032    1.8157    0.6259 H   0  0  0  0  0  0  0  0  0  0  0  0
   -3.4072    3.5286    1.6893 H   0  0  0  0  0  0  0  0  0  0  0  0
   -4.2673    3.1821    4.0064 H   0  0  0  0  0  0  0  0  0  0  0  0
   -2.1300   -0.4482    4.1303 H   0  0  0  0  0  0  0  0  0  0  0  0
   -0.2202   -2.1673    0.2600 H   0  0  0  0  0  0  0  0  0  0  0  0
  1  2  1  0  0  0  0
  2  3  1  0  0  0  0
  2 29  2  0  0  0  0
  3  4  2  0  0  0  0
  3 30  1  0  0  0  0
  4  5  1  0  0  0  0
  4 19  1  0  0  0  0
  5  6  1  0  0  0  0
  5 31  1  0  0  0  0
  5 32  1  0  0  0  0
  6  7  2  0  0  0  0
  6  8  1  0  0  0  0
  8  9  1  0  0  0  0
  8 33  1  0  0  0  0
  9 10  1  0  0  0  0
  9 18  2  0  0  0  0
 10 11  2  0  0  0  0
 10 34  1  0  0  0  0
 11 12  1  0  0  0  0
 12 13  2  0  0  0  0
 12 35  1  0  0  0  0
 13 14  1  0  0  0  0
 13 18  1  0  0  0  0
 14 15  2  0  0  0  0
 14 36  1  0  0  0  0
 15 16  1  0  0  0  0
 15 37  1  0  0  0  0
 16 17  2  0  0  0  0
 16 38  1  0  0  0  0
 17 18  1  0  0  0  0
 17 39  1  0  0  0  0
 19 20  2  0  0  0  0
 19 40  1  0  0  0  0
 20 21  1  0  0  0  0
 20 29  1  0  0  0  0
 21 22  1  0  0  0  0
 22 23  2  0  0  0  0
 22 28  1  0  0  0  0
 23 24  1  0  0  0  0
 23 41  1  0  0  0  0
 24 25  2  0  0  0  0
 24 42  1  0  0  0  0
 25 26  1  0  0  0  0
 25 43  1  0  0  0  0
 26 27  2  0  0  0  0
 26 28  1  0  0  0  0
 28 44  1  0  0  0  0
 29 45  1  0  0  0  0
M  END
$$$$
