
 OpenBabel07202414163D

 38 39  0  0  0  0  0  0  0  0999 V2000
   -0.9609   -6.1527   -3.1469 C   0  0  0  0  0  0  0  0  0  0  0  0
   -0.4892   -4.9174   -2.4341 C   0  0  0  0  0  0  0  0  0  0  0  0
    0.8217   -4.4686   -2.6160 C   0  0  0  0  0  0  0  0  0  0  0  0
    1.2692   -3.3351   -1.9360 C   0  0  0  0  0  0  0  0  0  0  0  0
    0.4089   -2.6446   -1.0791 C   0  0  0  0  0  0  0  0  0  0  0  0
   -0.9214   -3.0563   -0.8953 C   0  0  0  0  0  0  0  0  0  0  0  0
   -1.3488   -4.2142   -1.5640 C   0  0  0  0  0  0  0  0  0  0  0  0
   -1.7801   -2.2813    0.1018 C   0  0  0  0  0  0  0  0  0  0  0  0
   -3.3158   -2.2956   -0.0889 C   0  0  0  0  0  0  0  0  0  0  0  0
   -3.7942   -1.5999   -1.3686 C   0  0  0  0  0  0  0  0  0  0  0  0
   -3.7917   -0.0774   -1.2859 C   0  0  0  0  0  0  0  0  0  0  0  0
   -4.4854    0.4469   -0.1108 N   0  0  0  0  0  0  0  0  0  0  0  0
   -4.1456   -0.1774    1.1662 C   0  0  0  0  0  0  0  0  0  0  0  0
   -4.0675   -1.7024    1.1191 C   0  0  0  0  0  0  0  0  0  0  0  0
   -4.8913    1.7906   -0.1970 C   0  0  0  0  0  0  0  0  0  0  0  0
   -4.7879    2.4348   -1.2466 O   0  0  0  0  0  0  0  0  0  0  0  0
   -5.5088    2.4567    1.0220 C   0  0  0  0  0  0  0  0  0  0  0  0
   -4.2304    3.1223    2.0562 Cl  0  0  0  0  0  0  0  0  0  0  0  0
   -0.1990   -6.5339   -3.8369 H   0  0  0  0  0  0  0  0  0  0  0  0
   -1.8564   -5.9346   -3.7422 H   0  0  0  0  0  0  0  0  0  0  0  0
   -1.1864   -6.9445   -2.4271 H   0  0  0  0  0  0  0  0  0  0  0  0
    1.5008   -4.9922   -3.2803 H   0  0  0  0  0  0  0  0  0  0  0  0
    2.2937   -2.9987   -2.0686 H   0  0  0  0  0  0  0  0  0  0  0  0
    0.7957   -1.7780   -0.5475 H   0  0  0  0  0  0  0  0  0  0  0  0
   -2.3564   -4.5968   -1.4201 H   0  0  0  0  0  0  0  0  0  0  0  0
   -1.4358   -1.2397    0.1269 H   0  0  0  0  0  0  0  0  0  0  0  0
   -1.5494   -2.7082    1.0869 H   0  0  0  0  0  0  0  0  0  0  0  0
   -3.6244   -3.3463   -0.1466 H   0  0  0  0  0  0  0  0  0  0  0  0
   -4.8230   -1.9293   -1.5652 H   0  0  0  0  0  0  0  0  0  0  0  0
   -3.2003   -1.9155   -2.2328 H   0  0  0  0  0  0  0  0  0  0  0  0
   -4.2743    0.3134   -2.1906 H   0  0  0  0  0  0  0  0  0  0  0  0
   -2.7695    0.3171   -1.2699 H   0  0  0  0  0  0  0  0  0  0  0  0
   -4.8952    0.0962    1.9163 H   0  0  0  0  0  0  0  0  0  0  0  0
   -3.1917    0.2499    1.4964 H   0  0  0  0  0  0  0  0  0  0  0  0
   -5.0952   -2.0874    1.0889 H   0  0  0  0  0  0  0  0  0  0  0  0
   -3.6348   -2.0690    2.0582 H   0  0  0  0  0  0  0  0  0  0  0  0
   -6.1401    1.7744    1.5934 H   0  0  0  0  0  0  0  0  0  0  0  0
   -6.1396    3.2880    0.6894 H   0  0  0  0  0  0  0  0  0  0  0  0
  1  2  1  0  0  0  0
  1 19  1  0  0  0  0
  1 20  1  0  0  0  0
  1 21  1  0  0  0  0
  2  3  1  0  0  0  0
  2  7  2  0  0  0  0
  3  4  2  0  0  0  0
  3 22  1  0  0  0  0
  4  5  1  0  0  0  0
  4 23  1  0  0  0  0
  5  6  2  0  0  0  0
  5 24  1  0  0  0  0
  6  7  1  0  0  0  0
  6  8  1  0  0  0  0
  7 25  1  0  0  0  0
  8  9  1  0  0  0  0
  8 26  1  0  0  0  0
  8 27  1  0  0  0  0
  9 10  1  0  0  0  0
  9 14  1  0  0  0  0
  9 28  1  0  0  0  0
 10 11  1  0  0  0  0
 10 29  1  0  0  0  0
 10 30  1  0  0  0  0
 11 12  1  0  0  0  0
 11 31  1  0  0  0  0
 11 32  1  0  0  0  0
 12 13  1  0  0  0  0
 12 15  1  0  0  0  0
 13 14  1  0  0  0  0
 13 33  1  0  0  0  0
 13 34  1  0  0  0  0
 14 35  1  0  0  0  0
 14 36  1  0  0  0  0
 15 16  2  0  0  0  0
 15 17  1  0  0  0  0
 17 18  1  0  0  0  0
 17 37  1  0  0  0  0
 17 38  1  0  0  0  0
M  END
$$$$
