
 OpenBabel07202414153D

 42 44  0  0  0  0  0  0  0  0999 V2000
    2.6599   -2.0907   -1.9605 C   0  0  0  0  0  0  0  0  0  0  0  0
    2.8269   -0.7298   -0.8277 S   0  0  0  0  0  0  0  0  0  0  0  0
    3.9197    0.1152   -1.2562 O   0  0  0  0  0  0  0  0  0  0  0  0
    1.5047   -0.1850   -0.5999 O   0  0  0  0  0  0  0  0  0  0  0  0
    3.2347   -1.5289    0.6136 N   0  0  0  0  0  0  0  0  0  0  0  0
    4.6253   -1.6743    0.8995 C   0  0  0  0  0  0  0  0  0  0  0  0
    5.3419   -0.6350    1.4787 C   0  0  0  0  0  0  0  0  0  0  0  0
    6.7195   -0.7710    1.6874 C   0  0  0  0  0  0  0  0  0  0  0  0
    7.4224   -1.9461    1.3200 C   0  0  0  0  0  0  0  0  0  0  0  0
    8.8176   -2.1569    1.4942 C   0  0  0  0  0  0  0  0  0  0  0  0
    9.7336   -1.1747    1.9584 N   0  0  0  0  0  0  0  0  0  0  0  0
    9.8424    0.0818    1.3756 C   0  0  0  0  0  0  0  0  0  0  0  0
    9.1923    0.4754    0.4118 O   0  0  0  0  0  0  0  0  0  0  0  0
   10.8947    0.9596    2.0340 C   0  0  0  0  0  0  0  0  0  0  0  0
   12.2900    0.7919    1.4797 C   0  0  0  0  0  0  0  0  0  0  0  0
   12.5626    1.0458    0.1254 C   0  0  0  0  0  0  0  0  0  0  0  0
   13.8705    0.9686   -0.3675 C   0  0  0  0  0  0  0  0  0  0  0  0
   14.9213    0.6394    0.4875 C   0  0  0  0  0  0  0  0  0  0  0  0
   14.6605    0.3848    1.8308 C   0  0  0  0  0  0  0  0  0  0  0  0
   15.9554   -0.0084    2.8935 Cl  0  0  0  0  0  0  0  0  0  0  0  0
   13.3562    0.4595    2.3282 C   0  0  0  0  0  0  0  0  0  0  0  0
    9.3283   -3.4267    1.2215 C   0  0  0  0  0  0  0  0  0  0  0  0
    8.6071   -4.4594    0.7378 N   0  0  0  0  0  0  0  0  0  0  0  0
    7.2973   -4.2166    0.5134 C   0  0  0  0  0  0  0  0  0  0  0  0
    6.6528   -3.0086    0.7860 C   0  0  0  0  0  0  0  0  0  0  0  0
    5.2721   -2.8568    0.5557 C   0  0  0  0  0  0  0  0  0  0  0  0
    2.4234   -1.6776   -2.9452 H   0  0  0  0  0  0  0  0  0  0  0  0
    1.8460   -2.7368   -1.6254 H   0  0  0  0  0  0  0  0  0  0  0  0
    3.6023   -2.6364   -2.0133 H   0  0  0  0  0  0  0  0  0  0  0  0
    2.6859   -1.1131    1.3691 H   0  0  0  0  0  0  0  0  0  0  0  0
    4.8523    0.2971    1.7472 H   0  0  0  0  0  0  0  0  0  0  0  0
    7.2461    0.0646    2.1412 H   0  0  0  0  0  0  0  0  0  0  0  0
   10.6070   -1.5245    2.3368 H   0  0  0  0  0  0  0  0  0  0  0  0
   10.8843    0.7626    3.1134 H   0  0  0  0  0  0  0  0  0  0  0  0
   10.5874    2.0066    1.9187 H   0  0  0  0  0  0  0  0  0  0  0  0
   11.7603    1.3259   -0.5554 H   0  0  0  0  0  0  0  0  0  0  0  0
   14.0678    1.1806   -1.4143 H   0  0  0  0  0  0  0  0  0  0  0  0
   15.9370    0.5943    0.1031 H   0  0  0  0  0  0  0  0  0  0  0  0
   13.1822    0.2809    3.3869 H   0  0  0  0  0  0  0  0  0  0  0  0
   10.3838   -3.6489    1.3497 H   0  0  0  0  0  0  0  0  0  0  0  0
    6.7531   -5.0663    0.1067 H   0  0  0  0  0  0  0  0  0  0  0  0
    4.6966   -3.6740    0.1272 H   0  0  0  0  0  0  0  0  0  0  0  0
  1  2  1  0  0  0  0
  1 27  1  0  0  0  0
  1 28  1  0  0  0  0
  1 29  1  0  0  0  0
  2  3  2  0  0  0  0
  2  4  2  0  0  0  0
  2  5  1  0  0  0  0
  5  6  1  0  0  0  0
  5 30  1  0  0  0  0
  6  7  1  0  0  0  0
  6 26  2  0  0  0  0
  7  8  2  0  0  0  0
  7 31  1  0  0  0  0
  8  9  1  0  0  0  0
  8 32  1  0  0  0  0
  9 10  1  0  0  0  0
  9 25  2  0  0  0  0
 10 11  1  0  0  0  0
 10 22  2  0  0  0  0
 11 12  1  0  0  0  0
 11 33  1  0  0  0  0
 12 13  2  0  0  0  0
 12 14  1  0  0  0  0
 14 15  1  0  0  0  0
 14 34  1  0  0  0  0
 14 35  1  0  0  0  0
 15 16  1  0  0  0  0
 15 21  2  0  0  0  0
 16 17  2  0  0  0  0
 16 36  1  0  0  0  0
 17 18  1  0  0  0  0
 17 37  1  0  0  0  0
 18 19  2  0  0  0  0
 18 38  1  0  0  0  0
 19 20  1  0  0  0  0
 19 21  1  0  0  0  0
 21 39  1  0  0  0  0
 22 23  1  0  0  0  0
 22 40  1  0  0  0  0
 23 24  2  0  0  0  0
 24 25  1  0  0  0  0
 24 41  1  0  0  0  0
 25 26  1  0  0  0  0
 26 42  1  0  0  0  0
M  END
$$$$
