
 OpenBabel07202414123D

 67 70  0  0  1  0  0  0  0  0999 V2000
    2.6664    1.6917   -0.2915 C   0  0  0  0  0  0  0  0  0  0  0  0
    2.5131    0.1982    0.0786 C   0  0  0  0  0  0  0  0  0  0  0  0
    3.1626   -0.0040    1.4609 C   0  0  0  0  0  0  0  0  0  0  0  0
    0.9982   -0.0921    0.1768 C   0  0  0  0  0  0  0  0  0  0  0  0
    3.1217   -0.7541   -0.9584 C   0  0  0  0  0  0  0  0  0  0  0  0
    3.6384   -0.3092   -2.1729 C   0  0  0  0  0  0  0  0  0  0  0  0
    3.9845   -1.2081   -3.1954 C   0  0  0  0  0  0  0  0  0  0  0  0
    3.8757   -2.5988   -3.0556 C   0  0  0  0  0  0  0  0  0  0  0  0
    4.0654   -3.5315   -4.1798 N   0  0  0  0  0  0  0  0  0  0  0  0
    3.6779   -4.9571   -3.9896 C   0  0  3  0  0  0  0  0  0  0  0  0
    4.9201   -5.7549   -3.5258 C   0  0  0  0  0  0  0  0  0  0  0  0
    5.6186   -5.4243   -2.5698 O   0  0  0  0  0  0  0  0  0  0  0  0
    5.1813   -6.8905   -4.2691 N   0  0  0  0  0  0  0  0  0  0  0  0
    6.3254   -7.7359   -3.9860 C   0  0  0  0  0  0  0  0  0  0  0  0
    6.1124   -8.5500   -2.7113 C   0  0  0  0  0  0  0  0  0  0  0  0
    7.2720   -9.4592   -2.4027 C   0  0  0  0  0  0  0  0  0  0  0  0
    8.3530   -8.9951   -1.6376 C   0  0  0  0  0  0  0  0  0  0  0  0
    9.3991   -9.8546   -1.2937 C   0  0  0  0  0  0  0  0  0  0  0  0
    9.3781  -11.1808   -1.7213 C   0  0  0  0  0  0  0  0  0  0  0  0
    8.3212  -11.6314   -2.5034 C   0  0  0  0  0  0  0  0  0  0  0  0
    8.3018  -12.9055   -2.9166 F   0  0  0  0  0  0  0  0  0  0  0  0
    7.2746  -10.7851   -2.8524 C   0  0  0  0  0  0  0  0  0  0  0  0
    2.3638   -5.3302   -3.3040 C   0  0  0  0  0  0  0  0  0  0  0  0
    1.1435   -4.8042   -3.7499 C   0  0  0  0  0  0  0  0  0  0  0  0
   -0.0560   -5.3019   -3.2510 C   0  0  0  0  0  0  0  0  0  0  0  0
   -0.0128   -6.3144   -2.3054 C   0  0  0  0  0  0  0  0  0  0  0  0
    1.1375   -6.8254   -1.8220 N   0  0  0  0  0  0  0  0  0  0  0  0
    2.2893   -6.3252   -2.3252 C   0  0  0  0  0  0  0  0  0  0  0  0
    4.7600   -3.1073   -5.3442 C   0  0  0  0  0  0  0  0  0  0  0  0
    5.1940   -1.9571   -5.4952 O   0  0  0  0  0  0  0  0  0  0  0  0
    5.1470   -4.0131   -6.4844 C   0  0  0  0  0  0  0  0  0  0  0  0
    6.2226   -3.7032   -7.2293 C   0  0  0  0  0  0  0  0  0  0  0  0
    6.4617   -4.5716   -8.2603 N   0  0  0  0  0  0  0  0  0  0  0  0
    5.5793   -5.6114   -8.3768 C   0  0  0  0  0  0  0  0  0  0  0  0
    5.6439   -6.5608   -9.1354 O   0  0  0  0  0  0  0  0  0  0  0  0
    4.3078   -5.3596   -7.1821 S   0  0  0  0  0  0  0  0  0  0  0  0
    3.5273   -3.0296   -1.7686 C   0  0  0  0  0  0  0  0  0  0  0  0
    3.1234   -2.1384   -0.7579 C   0  0  0  0  0  0  0  0  0  0  0  0
    2.2086    2.3378    0.4661 H   0  0  0  0  0  0  0  0  0  0  0  0
    2.1771    1.9243   -1.2454 H   0  0  0  0  0  0  0  0  0  0  0  0
    3.7213    1.9785   -0.3732 H   0  0  0  0  0  0  0  0  0  0  0  0
    2.7177    0.6679    2.2044 H   0  0  0  0  0  0  0  0  0  0  0  0
    4.2382    0.2033    1.4245 H   0  0  0  0  0  0  0  0  0  0  0  0
    3.0345   -1.0243    1.8371 H   0  0  0  0  0  0  0  0  0  0  0  0
    0.5193    0.5488    0.9256 H   0  0  0  0  0  0  0  0  0  0  0  0
    0.7927   -1.1310    0.4583 H   0  0  0  0  0  0  0  0  0  0  0  0
    0.4993    0.0893   -0.7836 H   0  0  0  0  0  0  0  0  0  0  0  0
    3.7481    0.7488   -2.3941 H   0  0  0  0  0  0  0  0  0  0  0  0
    4.2980   -0.7271   -4.1130 H   0  0  0  0  0  0  0  0  0  0  0  0
    3.4338   -5.3318   -4.9711 H   0  0  0  0  0  0  0  0  0  0  0  0
    4.5594   -7.1713   -5.0193 H   0  0  0  0  0  0  0  0  0  0  0  0
    7.2127   -7.0984   -3.9059 H   0  0  0  0  0  0  0  0  0  0  0  0
    6.4613   -8.3920   -4.8540 H   0  0  0  0  0  0  0  0  0  0  0  0
    5.1952   -9.1451   -2.7946 H   0  0  0  0  0  0  0  0  0  0  0  0
    5.9468   -7.8880   -1.8532 H   0  0  0  0  0  0  0  0  0  0  0  0
    8.3743   -7.9637   -1.2879 H   0  0  0  0  0  0  0  0  0  0  0  0
   10.2211   -9.4917   -0.6819 H   0  0  0  0  0  0  0  0  0  0  0  0
   10.1737  -11.8655   -1.4473 H   0  0  0  0  0  0  0  0  0  0  0  0
    6.4604  -11.1766   -3.4551 H   0  0  0  0  0  0  0  0  0  0  0  0
    1.1194   -4.0246   -4.5082 H   0  0  0  0  0  0  0  0  0  0  0  0
   -1.0134   -4.9316   -3.6068 H   0  0  0  0  0  0  0  0  0  0  0  0
   -0.9212   -6.7636   -1.9146 H   0  0  0  0  0  0  0  0  0  0  0  0
    3.1766   -6.7824   -1.8930 H   0  0  0  0  0  0  0  0  0  0  0  0
    6.8837   -2.8569   -7.0815 H   0  0  0  0  0  0  0  0  0  0  0  0
    7.2510   -4.4979   -8.8880 H   0  0  0  0  0  0  0  0  0  0  0  0
    3.5489   -4.0732   -1.4812 H   0  0  0  0  0  0  0  0  0  0  0  0
    2.7791   -2.5639    0.1829 H   0  0  0  0  0  0  0  0  0  0  0  0
  1  2  1  0  0  0  0
  1 39  1  0  0  0  0
  1 40  1  0  0  0  0
  1 41  1  0  0  0  0
  2  3  1  0  0  0  0
  2  4  1  0  0  0  0
  2  5  1  0  0  0  0
  3 42  1  0  0  0  0
  3 43  1  0  0  0  0
  3 44  1  0  0  0  0
  4 45  1  0  0  0  0
  4 46  1  0  0  0  0
  4 47  1  0  0  0  0
  5  6  1  0  0  0  0
  5 38  2  0  0  0  0
  6  7  2  0  0  0  0
  6 48  1  0  0  0  0
  7  8  1  0  0  0  0
  7 49  1  0  0  0  0
  8  9  1  0  0  0  0
  8 37  2  0  0  0  0
  9 10  1  0  0  0  0
  9 29  1  0  0  0  0
 10 11  1  0  0  0  0
 10 23  1  0  0  0  0
 10 50  1  0  0  0  0
 11 12  2  0  0  0  0
 11 13  1  0  0  0  0
 13 14  1  0  0  0  0
 13 51  1  0  0  0  0
 14 15  1  0  0  0  0
 14 52  1  0  0  0  0
 14 53  1  0  0  0  0
 15 16  1  0  0  0  0
 15 54  1  0  0  0  0
 15 55  1  0  0  0  0
 16 17  1  0  0  0  0
 16 22  2  0  0  0  0
 17 18  2  0  0  0  0
 17 56  1  0  0  0  0
 18 19  1  0  0  0  0
 18 57  1  0  0  0  0
 19 20  2  0  0  0  0
 19 58  1  0  0  0  0
 20 21  1  0  0  0  0
 20 22  1  0  0  0  0
 22 59  1  0  0  0  0
 23 24  1  0  0  0  0
 23 28  2  0  0  0  0
 24 25  2  0  0  0  0
 24 60  1  0  0  0  0
 25 26  1  0  0  0  0
 25 61  1  0  0  0  0
 26 27  2  0  0  0  0
 26 62  1  0  0  0  0
 27 28  1  0  0  0  0
 28 63  1  0  0  0  0
 29 30  2  0  0  0  0
 29 31  1  0  0  0  0
 31 32  2  0  0  0  0
 31 36  1  0  0  0  0
 32 33  1  0  0  0  0
 32 64  1  0  0  0  0
 33 34  1  0  0  0  0
 33 65  1  0  0  0  0
 34 35  2  0  0  0  0
 34 36  1  0  0  0  0
 37 38  1  0  0  0  0
 37 66  1  0  0  0  0
 38 67  1  0  0  0  0
M  END
$$$$
