
 OpenBabel07202414163D

 32 33  0  0  0  0  0  0  0  0999 V2000
    1.7804    2.4848    0.6494 C   0  0  0  0  0  0  0  0  0  0  0  0
    1.0994    1.3748   -0.1020 C   0  0  0  0  0  0  0  0  0  0  0  0
    1.8916    0.2934   -0.5268 C   0  0  0  0  0  0  0  0  0  0  0  0
    1.3023   -0.7601   -1.2046 C   0  0  0  0  0  0  0  0  0  0  0  0
   -0.0128   -0.8285   -1.4637 N   0  0  0  0  0  0  0  0  0  0  0  0
   -0.7671    0.2207   -1.0503 C   0  0  0  0  0  0  0  0  0  0  0  0
   -0.2793    1.3513   -0.3860 C   0  0  0  0  0  0  0  0  0  0  0  0
   -1.1186    2.4313   -0.0028 N   0  0  0  0  0  0  0  0  0  0  0  0
   -2.4001    2.6585   -0.4888 C   0  0  0  0  0  0  0  0  0  0  0  0
   -2.9671    1.9959   -1.3545 O   0  0  0  0  0  0  0  0  0  0  0  0
   -3.0913    3.8720    0.1114 C   0  0  0  0  0  0  0  0  0  0  0  0
   -2.7674    5.1541   -0.6169 C   0  0  0  0  0  0  0  0  0  0  0  0
   -3.0141    5.2834   -1.9930 C   0  0  0  0  0  0  0  0  0  0  0  0
   -2.6962    6.4644   -2.6659 C   0  0  0  0  0  0  0  0  0  0  0  0
   -2.1397    7.5350   -1.9717 C   0  0  0  0  0  0  0  0  0  0  0  0
   -1.9153    7.4314   -0.5974 C   0  0  0  0  0  0  0  0  0  0  0  0
   -2.2334    6.2467    0.0793 C   0  0  0  0  0  0  0  0  0  0  0  0
   -1.3536    8.5353    0.1246 C   0  0  0  0  0  0  0  0  0  0  0  0
   -0.8897    9.4158    0.7228 N   0  0  0  0  0  0  0  0  0  0  0  0
    2.8669    2.4501    0.5034 H   0  0  0  0  0  0  0  0  0  0  0  0
    1.5832    2.3908    1.7217 H   0  0  0  0  0  0  0  0  0  0  0  0
    1.4512    3.4665    0.2973 H   0  0  0  0  0  0  0  0  0  0  0  0
    2.9617    0.2698   -0.3441 H   0  0  0  0  0  0  0  0  0  0  0  0
    1.8897   -1.5997   -1.5641 H   0  0  0  0  0  0  0  0  0  0  0  0
   -1.8217    0.0862   -1.2665 H   0  0  0  0  0  0  0  0  0  0  0  0
   -0.7024    3.1612    0.5602 H   0  0  0  0  0  0  0  0  0  0  0  0
   -2.8308    3.9422    1.1741 H   0  0  0  0  0  0  0  0  0  0  0  0
   -4.1749    3.7016    0.0747 H   0  0  0  0  0  0  0  0  0  0  0  0
   -3.4529    4.4589   -2.5551 H   0  0  0  0  0  0  0  0  0  0  0  0
   -2.8833    6.5450   -3.7369 H   0  0  0  0  0  0  0  0  0  0  0  0
   -1.8871    8.4493   -2.5065 H   0  0  0  0  0  0  0  0  0  0  0  0
   -2.0665    6.1805    1.1529 H   0  0  0  0  0  0  0  0  0  0  0  0
  1  2  1  0  0  0  0
  1 20  1  0  0  0  0
  1 21  1  0  0  0  0
  1 22  1  0  0  0  0
  2  3  1  0  0  0  0
  2  7  2  0  0  0  0
  3  4  2  0  0  0  0
  3 23  1  0  0  0  0
  4  5  1  0  0  0  0
  4 24  1  0  0  0  0
  5  6  2  0  0  0  0
  6  7  1  0  0  0  0
  6 25  1  0  0  0  0
  7  8  1  0  0  0  0
  8  9  1  0  0  0  0
  8 26  1  0  0  0  0
  9 10  2  0  0  0  0
  9 11  1  0  0  0  0
 11 12  1  0  0  0  0
 11 27  1  0  0  0  0
 11 28  1  0  0  0  0
 12 13  1  0  0  0  0
 12 17  2  0  0  0  0
 13 14  2  0  0  0  0
 13 29  1  0  0  0  0
 14 15  1  0  0  0  0
 14 30  1  0  0  0  0
 15 16  2  0  0  0  0
 15 31  1  0  0  0  0
 16 17  1  0  0  0  0
 16 18  1  0  0  0  0
 17 32  1  0  0  0  0
 18 19  3  0  0  0  0
M  END
$$$$
