
 OpenBabel07202414163D

 39 42  0  0  1  0  0  0  0  0999 V2000
    0.9201    1.4648   -1.8382 C   0  0  0  0  0  0  0  0  0  0  0  0
    2.3074    1.2796   -1.3169 C   0  0  0  0  0  0  0  0  0  0  0  0
    3.1973    2.2159   -0.8186 C   0  0  0  0  0  0  0  0  0  0  0  0
    4.4923    1.6657   -0.4901 C   0  0  0  0  0  0  0  0  0  0  0  0
    5.7152    2.2633   -0.0704 C   0  0  0  0  0  0  0  0  0  0  0  0
    5.8256    3.6532    0.1979 N   0  0  0  0  0  0  0  0  0  0  0  0
    6.9306    4.4166   -0.1697 C   0  0  0  0  0  0  0  0  0  0  0  0
    7.8676    3.9649   -0.8277 O   0  0  0  0  0  0  0  0  0  0  0  0
    6.9576    5.8540    0.3729 C   0  0  3  0  0  0  0  0  0  0  0  0
    8.2467    6.5948   -0.0227 C   0  0  0  0  0  0  0  0  0  0  0  0
    8.1987    8.0998    0.2635 C   0  0  0  0  0  0  0  0  0  0  0  0
    7.1116    8.5042    1.1051 O   0  0  0  0  0  0  0  0  0  0  0  0
    5.9122    8.0783    0.5941 C   0  0  0  0  0  0  0  0  0  0  0  0
    4.8316    8.9528    0.6488 C   0  0  0  0  0  0  0  0  0  0  0  0
    3.5902    8.5334    0.1754 C   0  0  0  0  0  0  0  0  0  0  0  0
    3.4640    7.2666   -0.3903 C   0  0  0  0  0  0  0  0  0  0  0  0
    1.9246    6.7163   -0.9301 Cl  0  0  0  0  0  0  0  0  0  0  0  0
    4.5620    6.4037   -0.4710 C   0  0  0  0  0  0  0  0  0  0  0  0
    5.7824    6.7712    0.0975 C   0  0  0  0  0  0  0  0  0  0  0  0
    6.8028    1.4062    0.1024 C   0  0  0  0  0  0  0  0  0  0  0  0
    6.7763    0.0694   -0.0783 N   0  0  0  0  0  0  0  0  0  0  0  0
    5.6298   -0.4996   -0.4989 C   0  0  0  0  0  0  0  0  0  0  0  0
    4.4963    0.2828   -0.7216 C   0  0  0  0  0  0  0  0  0  0  0  0
    2.9826   -0.2827   -1.3076 S   0  0  0  0  0  0  0  0  0  0  0  0
    0.6203    2.5140   -1.8094 H   0  0  0  0  0  0  0  0  0  0  0  0
    0.2011    0.8864   -1.2486 H   0  0  0  0  0  0  0  0  0  0  0  0
    0.8546    1.1271   -2.8818 H   0  0  0  0  0  0  0  0  0  0  0  0
    2.9416    3.2653   -0.7453 H   0  0  0  0  0  0  0  0  0  0  0  0
    4.9784    4.1214    0.4893 H   0  0  0  0  0  0  0  0  0  0  0  0
    6.9883    5.7233    1.4642 H   0  0  0  0  0  0  0  0  0  0  0  0
    8.4816    6.4596   -1.0881 H   0  0  0  0  0  0  0  0  0  0  0  0
    9.0982    6.1540    0.5129 H   0  0  0  0  0  0  0  0  0  0  0  0
    8.1489    8.6710   -0.6741 H   0  0  0  0  0  0  0  0  0  0  0  0
    9.1270    8.4122    0.7566 H   0  0  0  0  0  0  0  0  0  0  0  0
    4.9532    9.9467    1.0701 H   0  0  0  0  0  0  0  0  0  0  0  0
    2.7314    9.1944    0.2494 H   0  0  0  0  0  0  0  0  0  0  0  0
    4.4238    5.4466   -0.9606 H   0  0  0  0  0  0  0  0  0  0  0  0
    7.7592    1.7826    0.4555 H   0  0  0  0  0  0  0  0  0  0  0  0
    5.6444   -1.5706   -0.6659 H   0  0  0  0  0  0  0  0  0  0  0  0
  1  2  1  0  0  0  0
  1 25  1  0  0  0  0
  1 26  1  0  0  0  0
  1 27  1  0  0  0  0
  2  3  2  0  0  0  0
  2 24  1  0  0  0  0
  3  4  1  0  0  0  0
  3 28  1  0  0  0  0
  4  5  1  0  0  0  0
  4 23  2  0  0  0  0
  5  6  1  0  0  0  0
  5 20  2  0  0  0  0
  6  7  1  0  0  0  0
  6 29  1  0  0  0  0
  7  8  2  0  0  0  0
  7  9  1  0  0  0  0
  9 10  1  0  0  0  0
  9 19  1  0  0  0  0
  9 30  1  0  0  0  0
 10 11  1  0  0  0  0
 10 31  1  0  0  0  0
 10 32  1  0  0  0  0
 11 12  1  0  0  0  0
 11 33  1  0  0  0  0
 11 34  1  0  0  0  0
 12 13  1  0  0  0  0
 13 14  1  0  0  0  0
 13 19  2  0  0  0  0
 14 15  2  0  0  0  0
 14 35  1  0  0  0  0
 15 16  1  0  0  0  0
 15 36  1  0  0  0  0
 16 17  1  0  0  0  0
 16 18  2  0  0  0  0
 18 19  1  0  0  0  0
 18 37  1  0  0  0  0
 20 21  1  0  0  0  0
 20 38  1  0  0  0  0
 21 22  2  0  0  0  0
 22 23  1  0  0  0  0
 22 39  1  0  0  0  0
 23 24  1  0  0  0  0
M  END
$$$$
