
 OpenBabel07202414123D

 63 66  0  0  1  0  0  0  0  0999 V2000
    3.4191    1.2971   -0.5834 C   0  0  0  0  0  0  0  0  0  0  0  0
    2.5742    0.1590    0.0344 C   0  0  0  0  0  0  0  0  0  0  0  0
    2.3934    0.4822    1.5299 C   0  0  0  0  0  0  0  0  0  0  0  0
    1.1977    0.1769   -0.6669 C   0  0  0  0  0  0  0  0  0  0  0  0
    3.1868   -1.2353   -0.1555 C   0  0  0  0  0  0  0  0  0  0  0  0
    4.2893   -1.4581   -0.9784 C   0  0  0  0  0  0  0  0  0  0  0  0
    4.7018   -2.7566   -1.3094 C   0  0  0  0  0  0  0  0  0  0  0  0
    4.0697   -3.9012   -0.8041 C   0  0  0  0  0  0  0  0  0  0  0  0
    4.4098   -5.2497   -1.2704 N   0  0  0  0  0  0  0  0  0  0  0  0
    3.4962   -6.4041   -0.9562 C   0  0  3  0  0  0  0  0  0  0  0  0
    3.9741   -7.0913    0.3610 C   0  0  0  0  0  0  0  0  0  0  0  0
    3.6455   -8.2368    0.6717 O   0  0  0  0  0  0  0  0  0  0  0  0
    4.7092   -6.3055    1.2252 N   0  0  0  0  0  0  0  0  0  0  0  0
    5.1898   -6.7963    2.5025 C   0  0  0  0  0  0  0  0  0  0  0  0
    6.3089   -7.8237    2.3425 C   0  0  0  0  0  0  0  0  0  0  0  0
    6.8553   -8.2543    3.6541 C   0  0  0  0  0  0  0  0  0  0  0  0
    6.8366   -9.5015    4.2343 C   0  0  0  0  0  0  0  0  0  0  0  0
    7.4637   -9.3518    5.4339 N   0  0  0  0  0  0  0  0  0  0  0  0
    7.8393   -8.0405    5.5406 C   0  0  0  0  0  0  0  0  0  0  0  0
    7.4885   -7.3544    4.4788 N   0  0  0  0  0  0  0  0  0  0  0  0
    1.9711   -6.2389   -1.0770 C   0  0  0  0  0  0  0  0  0  0  0  0
    1.3732   -5.3427   -1.9751 C   0  0  0  0  0  0  0  0  0  0  0  0
   -0.0120   -5.3330   -2.1493 C   0  0  0  0  0  0  0  0  0  0  0  0
   -0.7741   -6.2475   -1.4472 C   0  0  0  0  0  0  0  0  0  0  0  0
   -0.2525   -7.1266   -0.5746 N   0  0  0  0  0  0  0  0  0  0  0  0
    1.0934   -7.1068   -0.4152 C   0  0  0  0  0  0  0  0  0  0  0  0
    5.6880   -5.4899   -1.8862 C   0  0  0  0  0  0  0  0  0  0  0  0
    6.5554   -4.6183   -1.9655 O   0  0  0  0  0  0  0  0  0  0  0  0
    6.0711   -6.8062   -2.4298 C   0  0  0  0  0  0  0  0  0  0  0  0
    7.2209   -7.0061   -3.1742 C   0  0  0  0  0  0  0  0  0  0  0  0
    7.3081   -8.3176   -3.5175 O   0  0  0  0  0  0  0  0  0  0  0  0
    6.2047   -8.8683   -2.9485 C   0  0  0  0  0  0  0  0  0  0  0  0
    5.4431   -8.0274   -2.2859 N   0  0  0  0  0  0  0  0  0  0  0  0
    3.0580   -3.6649    0.1366 C   0  0  0  0  0  0  0  0  0  0  0  0
    2.6051   -2.3676    0.4298 C   0  0  0  0  0  0  0  0  0  0  0  0
    2.9518    2.2743   -0.4150 H   0  0  0  0  0  0  0  0  0  0  0  0
    3.5254    1.1809   -1.6689 H   0  0  0  0  0  0  0  0  0  0  0  0
    4.4236    1.3337   -0.1459 H   0  0  0  0  0  0  0  0  0  0  0  0
    1.9820    1.4892    1.6667 H   0  0  0  0  0  0  0  0  0  0  0  0
    3.3515    0.4370    2.0605 H   0  0  0  0  0  0  0  0  0  0  0  0
    1.7062   -0.2110    2.0260 H   0  0  0  0  0  0  0  0  0  0  0  0
    0.7130    1.1544   -0.5665 H   0  0  0  0  0  0  0  0  0  0  0  0
    0.5138   -0.5717   -0.2513 H   0  0  0  0  0  0  0  0  0  0  0  0
    1.2988   -0.0357   -1.7387 H   0  0  0  0  0  0  0  0  0  0  0  0
    4.8380   -0.6380   -1.4341 H   0  0  0  0  0  0  0  0  0  0  0  0
    5.5119   -2.7987   -2.0291 H   0  0  0  0  0  0  0  0  0  0  0  0
    3.6419   -7.1378   -1.7433 H   0  0  0  0  0  0  0  0  0  0  0  0
    5.0666   -5.4147    0.9006 H   0  0  0  0  0  0  0  0  0  0  0  0
    4.3408   -7.2276    3.0466 H   0  0  0  0  0  0  0  0  0  0  0  0
    5.5340   -5.9205    3.0646 H   0  0  0  0  0  0  0  0  0  0  0  0
    7.1170   -7.3984    1.7355 H   0  0  0  0  0  0  0  0  0  0  0  0
    5.9403   -8.6989    1.7947 H   0  0  0  0  0  0  0  0  0  0  0  0
    6.4316  -10.4521    3.9053 H   0  0  0  0  0  0  0  0  0  0  0  0
    7.6286  -10.0686    6.1257 H   0  0  0  0  0  0  0  0  0  0  0  0
    8.3566   -7.6494    6.4069 H   0  0  0  0  0  0  0  0  0  0  0  0
    1.9727   -4.6414   -2.5499 H   0  0  0  0  0  0  0  0  0  0  0  0
   -0.4841   -4.6392   -2.8351 H   0  0  0  0  0  0  0  0  0  0  0  0
   -1.8497   -6.3108   -1.5809 H   0  0  0  0  0  0  0  0  0  0  0  0
    1.4343   -7.8710    0.2777 H   0  0  0  0  0  0  0  0  0  0  0  0
    8.0176   -6.3609   -3.5167 H   0  0  0  0  0  0  0  0  0  0  0  0
    6.0641   -9.9301   -3.0947 H   0  0  0  0  0  0  0  0  0  0  0  0
    2.5529   -4.4709    0.6603 H   0  0  0  0  0  0  0  0  0  0  0  0
    1.7532   -2.2696    1.1003 H   0  0  0  0  0  0  0  0  0  0  0  0
  1  2  1  0  0  0  0
  1 36  1  0  0  0  0
  1 37  1  0  0  0  0
  1 38  1  0  0  0  0
  2  3  1  0  0  0  0
  2  4  1  0  0  0  0
  2  5  1  0  0  0  0
  3 39  1  0  0  0  0
  3 40  1  0  0  0  0
  3 41  1  0  0  0  0
  4 42  1  0  0  0  0
  4 43  1  0  0  0  0
  4 44  1  0  0  0  0
  5  6  1  0  0  0  0
  5 35  2  0  0  0  0
  6  7  2  0  0  0  0
  6 45  1  0  0  0  0
  7  8  1  0  0  0  0
  7 46  1  0  0  0  0
  8  9  1  0  0  0  0
  8 34  2  0  0  0  0
  9 10  1  0  0  0  0
  9 27  1  0  0  0  0
 10 11  1  0  0  0  0
 10 21  1  0  0  0  0
 10 47  1  0  0  0  0
 11 12  2  0  0  0  0
 11 13  1  0  0  0  0
 13 14  1  0  0  0  0
 13 48  1  0  0  0  0
 14 15  1  0  0  0  0
 14 49  1  0  0  0  0
 14 50  1  0  0  0  0
 15 16  1  0  0  0  0
 15 51  1  0  0  0  0
 15 52  1  0  0  0  0
 16 17  2  0  0  0  0
 16 20  1  0  0  0  0
 17 18  1  0  0  0  0
 17 53  1  0  0  0  0
 18 19  1  0  0  0  0
 18 54  1  0  0  0  0
 19 20  2  0  0  0  0
 19 55  1  0  0  0  0
 21 22  1  0  0  0  0
 21 26  2  0  0  0  0
 22 23  2  0  0  0  0
 22 56  1  0  0  0  0
 23 24  1  0  0  0  0
 23 57  1  0  0  0  0
 24 25  2  0  0  0  0
 24 58  1  0  0  0  0
 25 26  1  0  0  0  0
 26 59  1  0  0  0  0
 27 28  2  0  0  0  0
 27 29  1  0  0  0  0
 29 30  2  0  0  0  0
 29 33  1  0  0  0  0
 30 31  1  0  0  0  0
 30 60  1  0  0  0  0
 31 32  1  0  0  0  0
 32 33  2  0  0  0  0
 32 61  1  0  0  0  0
 34 35  1  0  0  0  0
 34 62  1  0  0  0  0
 35 63  1  0  0  0  0
M  END
$$$$
