
 OpenBabel07202414153D

 44 47  0  0  1  0  0  0  0  0999 V2000
    1.8898    0.0452    0.7186 C   0  0  0  0  0  0  0  0  0  0  0  0
    0.8870   -0.0996   -0.4278 C   0  0  2  0  0  0  0  0  0  0  0  0
    0.0104    1.1514   -0.5605 C   0  0  0  0  0  0  0  0  0  0  0  0
   -1.1558    0.8755    0.3986 C   0  0  1  0  0  0  0  0  0  0  0  0
   -2.3840    1.6974    0.1255 C   0  0  0  0  0  0  0  0  0  0  0  0
   -3.1342    1.6890   -1.1000 C   0  0  0  0  0  0  0  0  0  0  0  0
   -4.2225    2.5299   -1.0661 C   0  0  0  0  0  0  0  0  0  0  0  0
   -4.3540    3.3465    0.4272 S   0  0  0  0  0  0  0  0  0  0  0  0
   -2.9571    2.5694    1.0343 C   0  0  0  0  0  0  0  0  0  0  0  0
   -1.3659   -0.6342    0.2532 C   0  0  0  0  0  0  0  0  0  0  0  0
   -0.0765   -1.1691   -0.1667 N   0  0  0  0  0  0  0  0  0  0  0  0
    0.0736   -2.5256   -0.3594 C   0  0  0  0  0  0  0  0  0  0  0  0
   -0.8495   -3.3126   -0.1345 O   0  0  0  0  0  0  0  0  0  0  0  0
    1.4033   -3.0376   -0.8898 C   0  0  0  0  0  0  0  0  0  0  0  0
    1.5145   -3.0961   -2.3959 C   0  0  0  0  0  0  0  0  0  0  0  0
    0.3888   -3.4168   -3.1620 C   0  0  0  0  0  0  0  0  0  0  0  0
    0.3869   -3.5557   -4.5018 N   0  0  0  0  0  0  0  0  0  0  0  0
    1.5708   -3.3927   -5.1260 C   0  0  0  0  0  0  0  0  0  0  0  0
    2.7694   -3.0798   -4.4859 C   0  0  0  0  0  0  0  0  0  0  0  0
    3.9600   -2.9260   -5.2172 C   0  0  0  0  0  0  0  0  0  0  0  0
    5.1522   -2.6019   -4.5759 C   0  0  0  0  0  0  0  0  0  0  0  0
    5.1643   -2.4368   -3.1983 C   0  0  0  0  0  0  0  0  0  0  0  0
    3.9873   -2.6024   -2.4603 C   0  0  0  0  0  0  0  0  0  0  0  0
    2.7531   -2.9226   -3.0824 C   0  0  0  0  0  0  0  0  0  0  0  0
    2.5895    0.8615    0.5150 H   0  0  0  0  0  0  0  0  0  0  0  0
    2.4771   -0.8643    0.8670 H   0  0  0  0  0  0  0  0  0  0  0  0
    1.3896    0.2517    1.6702 H   0  0  0  0  0  0  0  0  0  0  0  0
    1.4230   -0.2967   -1.3617 H   0  0  0  0  0  0  0  0  0  0  0  0
   -0.3460    1.2369   -1.5948 H   0  0  0  0  0  0  0  0  0  0  0  0
    0.5413    2.0786   -0.3205 H   0  0  0  0  0  0  0  0  0  0  0  0
   -0.8121    1.0778    1.4227 H   0  0  0  0  0  0  0  0  0  0  0  0
   -2.8899    1.0852   -1.9665 H   0  0  0  0  0  0  0  0  0  0  0  0
   -4.9470    2.7048   -1.8499 H   0  0  0  0  0  0  0  0  0  0  0  0
   -2.6244    2.7912    2.0395 H   0  0  0  0  0  0  0  0  0  0  0  0
   -2.1081   -0.8989   -0.5085 H   0  0  0  0  0  0  0  0  0  0  0  0
   -1.6683   -1.0984    1.1983 H   0  0  0  0  0  0  0  0  0  0  0  0
    1.5549   -4.0468   -0.4865 H   0  0  0  0  0  0  0  0  0  0  0  0
    2.1961   -2.4293   -0.4610 H   0  0  0  0  0  0  0  0  0  0  0  0
   -0.5848   -3.5842   -2.7060 H   0  0  0  0  0  0  0  0  0  0  0  0
    1.5275   -3.5297   -6.2036 H   0  0  0  0  0  0  0  0  0  0  0  0
    3.9643   -3.0574   -6.2981 H   0  0  0  0  0  0  0  0  0  0  0  0
    6.0660   -2.4788   -5.1510 H   0  0  0  0  0  0  0  0  0  0  0  0
    6.0915   -2.1799   -2.6905 H   0  0  0  0  0  0  0  0  0  0  0  0
    4.0590   -2.4707   -1.3851 H   0  0  0  0  0  0  0  0  0  0  0  0
  1  2  1  0  0  0  0
  1 25  1  0  0  0  0
  1 26  1  0  0  0  0
  1 27  1  0  0  0  0
  2  3  1  0  0  0  0
  2 11  1  0  0  0  0
  2 28  1  6  0  0  0
  3  4  1  0  0  0  0
  3 29  1  0  0  0  0
  3 30  1  0  0  0  0
  4  5  1  0  0  0  0
  4 10  1  0  0  0  0
  4 31  1  1  0  0  0
  5  6  1  0  0  0  0
  5  9  2  0  0  0  0
  6  7  2  0  0  0  0
  6 32  1  0  0  0  0
  7  8  1  0  0  0  0
  7 33  1  0  0  0  0
  8  9  1  0  0  0  0
  9 34  1  0  0  0  0
 10 11  1  0  0  0  0
 10 35  1  0  0  0  0
 10 36  1  0  0  0  0
 11 12  1  0  0  0  0
 12 13  2  0  0  0  0
 12 14  1  0  0  0  0
 14 15  1  0  0  0  0
 14 37  1  0  0  0  0
 14 38  1  0  0  0  0
 15 16  1  0  0  0  0
 15 24  2  0  0  0  0
 16 17  2  0  0  0  0
 16 39  1  0  0  0  0
 17 18  1  0  0  0  0
 18 19  2  0  0  0  0
 18 40  1  0  0  0  0
 19 20  1  0  0  0  0
 19 24  1  0  0  0  0
 20 21  2  0  0  0  0
 20 41  1  0  0  0  0
 21 22  1  0  0  0  0
 21 42  1  0  0  0  0
 22 23  2  0  0  0  0
 22 43  1  0  0  0  0
 23 24  1  0  0  0  0
 23 44  1  0  0  0  0
M  END
$$$$
