
 OpenBabel07202414113D

 64 67  0  0  1  0  0  0  0  0999 V2000
    3.6875   -3.0219   -1.7379 C   0  0  0  0  0  0  0  0  0  0  0  0
    3.5524   -3.9474   -0.7717 C   0  0  0  0  0  0  0  0  0  0  0  0
    2.7007   -3.8232    0.4850 C   0  0  0  0  0  0  0  0  0  0  0  0
    2.0449   -2.4874    0.7500 N   0  0  0  0  0  0  0  0  0  0  0  0
    1.0010   -2.1141   -0.0942 C   0  0  0  0  0  0  0  0  0  0  0  0
    0.7503   -2.8562   -1.0646 O   0  0  0  0  0  0  0  0  0  0  0  0
    0.1109   -0.8383    0.0229 C   0  0  2  0  0  0  0  0  0  0  0  0
    0.6466    0.5374    0.4862 C   0  0  0  0  0  0  0  0  0  0  0  0
    0.2721    0.9040    1.8571 N   0  0  0  0  0  0  0  0  0  0  0  0
    0.8690    2.1814    2.3251 C   0  0  0  0  0  0  0  0  0  0  0  0
    0.5556    3.4694    1.5224 C   0  0  0  0  0  0  0  0  0  0  0  0
   -0.4344    3.6405    0.8198 O   0  0  0  0  0  0  0  0  0  0  0  0
    1.5111    4.4607    1.7230 N   0  0  0  0  0  0  0  0  0  0  0  0
    1.3920    5.7918    1.1716 C   0  0  0  0  0  0  0  0  0  0  0  0
   -1.1789    0.8677    2.0870 C   0  0  0  0  0  0  0  0  0  0  0  0
   -1.8693   -0.3563    1.5294 C   0  0  0  0  0  0  0  0  0  0  0  0
   -3.1928   -0.6375    1.9373 C   0  0  0  0  0  0  0  0  0  0  0  0
   -3.9362   -1.6550    1.3359 C   0  0  0  0  0  0  0  0  0  0  0  0
   -3.3794   -2.3875    0.2976 C   0  0  0  0  0  0  0  0  0  0  0  0
   -4.3080   -3.5954   -0.5008 Cl  0  0  0  0  0  0  0  0  0  0  0  0
   -2.0752   -2.1292   -0.1171 C   0  0  0  0  0  0  0  0  0  0  0  0
   -1.2995   -1.1338    0.5110 C   0  0  0  0  0  0  0  0  0  0  0  0
    2.1085   -2.1092    2.1361 C   0  0  0  0  0  0  0  0  0  0  0  0
    2.9540   -1.0557    2.4816 C   0  0  0  0  0  0  0  0  0  0  0  0
    3.4751   -0.8497    3.7153 N   0  0  0  0  0  0  0  0  0  0  0  0
    3.1573   -1.7639    4.6587 C   0  0  0  0  0  0  0  0  0  0  0  0
    2.2845   -2.8355    4.4659 C   0  0  0  0  0  0  0  0  0  0  0  0
    1.9936   -3.7436    5.5050 C   0  0  0  0  0  0  0  0  0  0  0  0
    1.1286   -4.8138    5.2933 C   0  0  0  0  0  0  0  0  0  0  0  0
    0.5498   -4.9925    4.0456 C   0  0  0  0  0  0  0  0  0  0  0  0
    0.8362   -4.0990    3.0066 C   0  0  0  0  0  0  0  0  0  0  0  0
    1.7220   -3.0064    3.1777 C   0  0  0  0  0  0  0  0  0  0  0  0
    4.1602   -5.3297   -0.9121 C   0  0  0  0  0  0  0  0  0  0  0  0
    3.8635   -6.2267   -0.1273 O   0  0  0  0  0  0  0  0  0  0  0  0
    5.0322   -5.5274   -1.9567 N   0  0  0  0  0  0  0  0  0  0  0  0
    5.3700   -6.8538   -2.4137 C   0  0  0  0  0  0  0  0  0  0  0  0
    3.1773   -2.0683   -1.6817 H   0  0  0  0  0  0  0  0  0  0  0  0
    4.2239   -3.1886   -2.6617 H   0  0  0  0  0  0  0  0  0  0  0  0
    3.3576   -4.0600    1.3343 H   0  0  0  0  0  0  0  0  0  0  0  0
    1.9044   -4.5764    0.4359 H   0  0  0  0  0  0  0  0  0  0  0  0
   -0.0463   -0.6263   -1.0523 H   0  0  0  0  0  0  0  0  0  0  0  0
    0.2306    1.2957   -0.1948 H   0  0  0  0  0  0  0  0  0  0  0  0
    1.7316    0.5798    0.3476 H   0  0  0  0  0  0  0  0  0  0  0  0
    1.9574    2.0562    2.3475 H   0  0  0  0  0  0  0  0  0  0  0  0
    0.5562    2.3705    3.3602 H   0  0  0  0  0  0  0  0  0  0  0  0
    2.2112    4.3168    2.4399 H   0  0  0  0  0  0  0  0  0  0  0  0
    0.9704    5.7615    0.1645 H   0  0  0  0  0  0  0  0  0  0  0  0
    2.3885    6.2433    1.1439 H   0  0  0  0  0  0  0  0  0  0  0  0
    0.7454    6.3900    1.8201 H   0  0  0  0  0  0  0  0  0  0  0  0
   -1.6850    1.7429    1.6643 H   0  0  0  0  0  0  0  0  0  0  0  0
   -1.3482    0.8780    3.1715 H   0  0  0  0  0  0  0  0  0  0  0  0
   -3.6605   -0.0320    2.7162 H   0  0  0  0  0  0  0  0  0  0  0  0
   -4.9579   -1.8439    1.6598 H   0  0  0  0  0  0  0  0  0  0  0  0
   -1.6729   -2.6901   -0.9594 H   0  0  0  0  0  0  0  0  0  0  0  0
    3.3127   -0.3569    1.7334 H   0  0  0  0  0  0  0  0  0  0  0  0
    3.6615   -1.6193    5.6126 H   0  0  0  0  0  0  0  0  0  0  0  0
    2.4461   -3.6213    6.4887 H   0  0  0  0  0  0  0  0  0  0  0  0
    0.9191   -5.5157    6.0967 H   0  0  0  0  0  0  0  0  0  0  0  0
   -0.1238   -5.8271    3.8690 H   0  0  0  0  0  0  0  0  0  0  0  0
    0.3480   -4.2653    2.0482 H   0  0  0  0  0  0  0  0  0  0  0  0
    5.3978   -4.7483   -2.4795 H   0  0  0  0  0  0  0  0  0  0  0  0
    4.4690   -7.4743   -2.4390 H   0  0  0  0  0  0  0  0  0  0  0  0
    6.1083   -7.3021   -1.7458 H   0  0  0  0  0  0  0  0  0  0  0  0
    5.7814   -6.7752   -3.4241 H   0  0  0  0  0  0  0  0  0  0  0  0
  1  2  2  0  0  0  0
  1 37  1  0  0  0  0
  1 38  1  0  0  0  0
  2  3  1  0  0  0  0
  2 33  1  0  0  0  0
  3  4  1  0  0  0  0
  3 39  1  0  0  0  0
  3 40  1  0  0  0  0
  4  5  1  0  0  0  0
  4 23  1  0  0  0  0
  5  6  2  0  0  0  0
  5  7  1  0  0  0  0
  7  8  1  0  0  0  0
  7 22  1  0  0  0  0
  7 41  1  6  0  0  0
  8  9  1  0  0  0  0
  8 42  1  0  0  0  0
  8 43  1  0  0  0  0
  9 10  1  0  0  0  0
  9 15  1  0  0  0  0
 10 11  1  0  0  0  0
 10 44  1  0  0  0  0
 10 45  1  0  0  0  0
 11 12  2  0  0  0  0
 11 13  1  0  0  0  0
 13 14  1  0  0  0  0
 13 46  1  0  0  0  0
 14 47  1  0  0  0  0
 14 48  1  0  0  0  0
 14 49  1  0  0  0  0
 15 16  1  0  0  0  0
 15 50  1  0  0  0  0
 15 51  1  0  0  0  0
 16 17  1  0  0  0  0
 16 22  2  0  0  0  0
 17 18  2  0  0  0  0
 17 52  1  0  0  0  0
 18 19  1  0  0  0  0
 18 53  1  0  0  0  0
 19 20  1  0  0  0  0
 19 21  2  0  0  0  0
 21 22  1  0  0  0  0
 21 54  1  0  0  0  0
 23 24  1  0  0  0  0
 23 32  2  0  0  0  0
 24 25  2  0  0  0  0
 24 55  1  0  0  0  0
 25 26  1  0  0  0  0
 26 27  2  0  0  0  0
 26 56  1  0  0  0  0
 27 28  1  0  0  0  0
 27 32  1  0  0  0  0
 28 29  2  0  0  0  0
 28 57  1  0  0  0  0
 29 30  1  0  0  0  0
 29 58  1  0  0  0  0
 30 31  2  0  0  0  0
 30 59  1  0  0  0  0
 31 32  1  0  0  0  0
 31 60  1  0  0  0  0
 33 34  2  0  0  0  0
 33 35  1  0  0  0  0
 35 36  1  0  0  0  0
 35 61  1  0  0  0  0
 36 62  1  0  0  0  0
 36 63  1  0  0  0  0
 36 64  1  0  0  0  0
M  END
$$$$
