
 OpenBabel07202414123D

 66 69  0  0  1  0  0  0  0  0999 V2000
    2.5080    1.6080   -0.1520 C   0  0  0  0  0  0  0  0  0  0  0  0
    2.5429    0.0803    0.0882 C   0  0  0  0  0  0  0  0  0  0  0  0
    3.3090   -0.1616    1.4025 C   0  0  0  0  0  0  0  0  0  0  0  0
    1.0785   -0.3854    0.2564 C   0  0  0  0  0  0  0  0  0  0  0  0
    3.1699   -0.7084   -1.0680 C   0  0  0  0  0  0  0  0  0  0  0  0
    3.5502   -0.1092   -2.2671 C   0  0  0  0  0  0  0  0  0  0  0  0
    3.9048   -0.8763   -3.3889 C   0  0  0  0  0  0  0  0  0  0  0  0
    3.9332   -2.2794   -3.3706 C   0  0  0  0  0  0  0  0  0  0  0  0
    4.1028   -3.0876   -4.5858 N   0  0  0  0  0  0  0  0  0  0  0  0
    3.8592   -4.5557   -4.5135 C   0  0  3  0  0  0  0  0  0  0  0  0
    5.1726   -5.3072   -4.2048 C   0  0  0  0  0  0  0  0  0  0  0  0
    5.8875   -5.0592   -3.2373 O   0  0  0  0  0  0  0  0  0  0  0  0
    5.4591   -6.3273   -5.1041 N   0  0  0  0  0  0  0  0  0  0  0  0
    6.6605   -7.1361   -5.0123 C   0  0  0  0  0  0  0  0  0  0  0  0
    6.3053   -8.6193   -5.0761 C   0  0  0  0  0  0  0  0  0  0  0  0
    7.5109   -9.5099   -4.9608 C   0  0  0  0  0  0  0  0  0  0  0  0
    7.9593   -9.9319   -3.7014 C   0  0  0  0  0  0  0  0  0  0  0  0
    9.0608  -10.7818   -3.5846 C   0  0  0  0  0  0  0  0  0  0  0  0
    9.7305  -11.2113   -4.7310 C   0  0  0  0  0  0  0  0  0  0  0  0
    9.2969  -10.7819   -5.9759 C   0  0  0  0  0  0  0  0  0  0  0  0
    9.9392  -11.1940   -7.0771 F   0  0  0  0  0  0  0  0  0  0  0  0
    8.2023   -9.9313   -6.1035 C   0  0  0  0  0  0  0  0  0  0  0  0
    2.6218   -5.0916   -3.7925 C   0  0  0  0  0  0  0  0  0  0  0  0
    1.3381   -4.6174   -4.1025 C   0  0  0  0  0  0  0  0  0  0  0  0
    0.2097   -5.2551   -3.5817 C   0  0  0  0  0  0  0  0  0  0  0  0
    0.3954   -6.3482   -2.7550 C   0  0  0  0  0  0  0  0  0  0  0  0
    1.6096   -6.8095   -2.3979 N   0  0  0  0  0  0  0  0  0  0  0  0
    2.6861   -6.1754   -2.9124 C   0  0  0  0  0  0  0  0  0  0  0  0
    4.6598   -2.5047   -5.7733 C   0  0  0  0  0  0  0  0  0  0  0  0
    5.0167   -1.3251   -5.8154 O   0  0  0  0  0  0  0  0  0  0  0  0
    4.8884   -3.2898   -6.9984 C   0  0  0  0  0  0  0  0  0  0  0  0
    4.1679   -4.2451   -7.6967 C   0  0  0  0  0  0  0  0  0  0  0  0
    4.7584   -4.7544   -8.8402 N   0  0  0  0  0  0  0  0  0  0  0  0
    5.8543   -4.0783   -9.0972 C   0  0  0  0  0  0  0  0  0  0  0  0
    6.2844   -2.8878   -7.9537 S   0  0  0  0  0  0  0  0  0  0  0  0
    3.7334   -2.8528   -2.1091 C   0  0  0  0  0  0  0  0  0  0  0  0
    3.3252   -2.0974   -0.9960 C   0  0  0  0  0  0  0  0  0  0  0  0
    2.0457    2.1324    0.6918 H   0  0  0  0  0  0  0  0  0  0  0  0
    1.9233    1.8633   -1.0447 H   0  0  0  0  0  0  0  0  0  0  0  0
    3.5166    2.0171   -0.2799 H   0  0  0  0  0  0  0  0  0  0  0  0
    2.8447    0.3844    2.2327 H   0  0  0  0  0  0  0  0  0  0  0  0
    4.3484    0.1769    1.3205 H   0  0  0  0  0  0  0  0  0  0  0  0
    3.3263   -1.2187    1.6876 H   0  0  0  0  0  0  0  0  0  0  0  0
    0.5919    0.1280    1.0939 H   0  0  0  0  0  0  0  0  0  0  0  0
    1.0050   -1.4619    0.4484 H   0  0  0  0  0  0  0  0  0  0  0  0
    0.4923   -0.1758   -0.6470 H   0  0  0  0  0  0  0  0  0  0  0  0
    3.5398    0.9702   -2.3948 H   0  0  0  0  0  0  0  0  0  0  0  0
    4.1041   -0.2899   -4.2774 H   0  0  0  0  0  0  0  0  0  0  0  0
    3.5997   -4.8637   -5.5147 H   0  0  0  0  0  0  0  0  0  0  0  0
    4.8907   -6.4498   -5.9328 H   0  0  0  0  0  0  0  0  0  0  0  0
    7.2089   -6.9022   -4.0933 H   0  0  0  0  0  0  0  0  0  0  0  0
    7.2953   -6.8534   -5.8594 H   0  0  0  0  0  0  0  0  0  0  0  0
    5.7783   -8.8380   -6.0149 H   0  0  0  0  0  0  0  0  0  0  0  0
    5.5907   -8.8686   -4.2804 H   0  0  0  0  0  0  0  0  0  0  0  0
    7.4469   -9.6062   -2.7979 H   0  0  0  0  0  0  0  0  0  0  0  0
    9.3942  -11.1130   -2.6070 H   0  0  0  0  0  0  0  0  0  0  0  0
   10.5807  -11.8825   -4.6562 H   0  0  0  0  0  0  0  0  0  0  0  0
    7.8921   -9.6216   -7.0972 H   0  0  0  0  0  0  0  0  0  0  0  0
    1.2052   -3.7637   -4.7661 H   0  0  0  0  0  0  0  0  0  0  0  0
   -0.7889   -4.9195   -3.8326 H   0  0  0  0  0  0  0  0  0  0  0  0
   -0.4487   -6.8992   -2.3530 H   0  0  0  0  0  0  0  0  0  0  0  0
    3.6319   -6.5982   -2.5807 H   0  0  0  0  0  0  0  0  0  0  0  0
    3.1926   -4.6390   -7.4376 H   0  0  0  0  0  0  0  0  0  0  0  0
    6.4539   -4.2542   -9.9814 H   0  0  0  0  0  0  0  0  0  0  0  0
    3.8750   -3.9109   -1.9265 H   0  0  0  0  0  0  0  0  0  0  0  0
    3.1001   -2.6342   -0.0767 H   0  0  0  0  0  0  0  0  0  0  0  0
  1  2  1  0  0  0  0
  1 38  1  0  0  0  0
  1 39  1  0  0  0  0
  1 40  1  0  0  0  0
  2  3  1  0  0  0  0
  2  4  1  0  0  0  0
  2  5  1  0  0  0  0
  3 41  1  0  0  0  0
  3 42  1  0  0  0  0
  3 43  1  0  0  0  0
  4 44  1  0  0  0  0
  4 45  1  0  0  0  0
  4 46  1  0  0  0  0
  5  6  1  0  0  0  0
  5 37  2  0  0  0  0
  6  7  2  0  0  0  0
  6 47  1  0  0  0  0
  7  8  1  0  0  0  0
  7 48  1  0  0  0  0
  8  9  1  0  0  0  0
  8 36  2  0  0  0  0
  9 10  1  0  0  0  0
  9 29  1  0  0  0  0
 10 11  1  0  0  0  0
 10 23  1  0  0  0  0
 10 49  1  0  0  0  0
 11 12  2  0  0  0  0
 11 13  1  0  0  0  0
 13 14  1  0  0  0  0
 13 50  1  0  0  0  0
 14 15  1  0  0  0  0
 14 51  1  0  0  0  0
 14 52  1  0  0  0  0
 15 16  1  0  0  0  0
 15 53  1  0  0  0  0
 15 54  1  0  0  0  0
 16 17  1  0  0  0  0
 16 22  2  0  0  0  0
 17 18  2  0  0  0  0
 17 55  1  0  0  0  0
 18 19  1  0  0  0  0
 18 56  1  0  0  0  0
 19 20  2  0  0  0  0
 19 57  1  0  0  0  0
 20 21  1  0  0  0  0
 20 22  1  0  0  0  0
 22 58  1  0  0  0  0
 23 24  1  0  0  0  0
 23 28  2  0  0  0  0
 24 25  2  0  0  0  0
 24 59  1  0  0  0  0
 25 26  1  0  0  0  0
 25 60  1  0  0  0  0
 26 27  2  0  0  0  0
 26 61  1  0  0  0  0
 27 28  1  0  0  0  0
 28 62  1  0  0  0  0
 29 30  2  0  0  0  0
 29 31  1  0  0  0  0
 31 32  2  0  0  0  0
 31 35  1  0  0  0  0
 32 33  1  0  0  0  0
 32 63  1  0  0  0  0
 33 34  2  0  0  0  0
 34 35  1  0  0  0  0
 34 64  1  0  0  0  0
 36 37  1  0  0  0  0
 36 65  1  0  0  0  0
 37 66  1  0  0  0  0
M  END
$$$$
