
 OpenBabel07202414123D

 73 75  0  0  1  0  0  0  0  0999 V2000
   10.5531   -1.5189    4.4553 C   0  0  0  0  0  0  0  0  0  0  0  0
    9.4908   -2.2041    3.5809 C   0  0  0  0  0  0  0  0  0  0  0  0
    9.6921   -1.9154    2.0859 C   0  0  0  0  0  0  0  0  0  0  0  0
    9.6252   -3.7207    3.7861 C   0  0  0  0  0  0  0  0  0  0  0  0
    8.1436   -1.8484    4.0094 O   0  0  0  0  0  0  0  0  0  0  0  0
    7.7963   -0.5366    3.9612 C   0  0  0  0  0  0  0  0  0  0  0  0
    8.5132    0.3702    3.5851 O   0  0  0  0  0  0  0  0  0  0  0  0
    6.5235   -0.3427    4.4137 N   0  0  0  0  0  0  0  0  0  0  0  0
    5.9320    0.9848    4.3851 C   0  0  0  0  0  0  0  0  0  0  0  0
    6.2401    1.8248    5.6336 C   0  0  0  0  0  0  0  0  0  0  0  0
    7.6450    2.1479    5.8430 N   0  0  0  0  0  0  0  0  0  0  0  0
    8.2701    3.2177    5.2031 C   0  0  0  0  0  0  0  0  0  0  0  0
    7.6685    3.9265    4.4005 O   0  0  0  0  0  0  0  0  0  0  0  0
    9.7368    3.4779    5.6670 C   0  0  3  0  0  0  0  0  0  0  0  0
   10.6239    4.1743    4.6708 N   0  0  0  0  0  0  0  0  0  0  0  0
   10.8477    5.5593    4.4815 C   0  0  0  0  0  0  0  0  0  0  0  0
   11.6351    5.9735    3.6227 O   0  0  0  0  0  0  0  0  0  0  0  0
   10.2262    6.5735    5.3197 C   0  0  0  0  0  0  0  0  0  0  0  0
   10.8538    7.7591    5.6543 C   0  0  0  0  0  0  0  0  0  0  0  0
   10.0124    8.4988    6.4214 O   0  0  0  0  0  0  0  0  0  0  0  0
    8.8870    7.7382    6.4748 C   0  0  0  0  0  0  0  0  0  0  0  0
    8.9372    6.6100    5.7981 N   0  0  0  0  0  0  0  0  0  0  0  0
   11.3243    3.3131    3.7469 C   0  0  0  0  0  0  0  0  0  0  0  0
   12.7112    3.4163    3.6140 C   0  0  0  0  0  0  0  0  0  0  0  0
   13.4047    2.6986    2.6313 C   0  0  0  0  0  0  0  0  0  0  0  0
   12.7441    1.8422    1.7383 C   0  0  0  0  0  0  0  0  0  0  0  0
   13.4946    1.0796    0.6279 C   0  0  0  0  0  0  0  0  0  0  0  0
   15.0173    1.3556    0.6261 C   0  0  0  0  0  0  0  0  0  0  0  0
   13.3045   -0.4401    0.8097 C   0  0  0  0  0  0  0  0  0  0  0  0
   12.9693    1.4722   -0.7712 C   0  0  0  0  0  0  0  0  0  0  0  0
   11.3509    1.7270    1.8975 C   0  0  0  0  0  0  0  0  0  0  0  0
   10.6518    2.4487    2.8869 C   0  0  0  0  0  0  0  0  0  0  0  0
    9.8162    3.9966    7.1094 C   0  0  0  0  0  0  0  0  0  0  0  0
   10.9595    3.8274    7.9006 C   0  0  0  0  0  0  0  0  0  0  0  0
   11.0000    4.3568    9.1945 C   0  0  0  0  0  0  0  0  0  0  0  0
    9.8964    5.0467    9.6670 C   0  0  0  0  0  0  0  0  0  0  0  0
    8.7605    5.1943    8.9630 N   0  0  0  0  0  0  0  0  0  0  0  0
    8.7444    4.6583    7.7174 C   0  0  0  0  0  0  0  0  0  0  0  0
   11.5630   -1.8448    4.1879 H   0  0  0  0  0  0  0  0  0  0  0  0
   10.3801   -1.7448    5.5136 H   0  0  0  0  0  0  0  0  0  0  0  0
   10.5377   -0.4291    4.3708 H   0  0  0  0  0  0  0  0  0  0  0  0
   10.6899   -2.2200    1.7541 H   0  0  0  0  0  0  0  0  0  0  0  0
    9.5726   -0.8585    1.8418 H   0  0  0  0  0  0  0  0  0  0  0  0
    8.9496   -2.4509    1.4819 H   0  0  0  0  0  0  0  0  0  0  0  0
   10.6218   -4.0735    3.4957 H   0  0  0  0  0  0  0  0  0  0  0  0
    8.8822   -4.2672    3.1946 H   0  0  0  0  0  0  0  0  0  0  0  0
    9.4558   -3.9916    4.8335 H   0  0  0  0  0  0  0  0  0  0  0  0
    5.9798   -1.1629    4.6425 H   0  0  0  0  0  0  0  0  0  0  0  0
    4.8497    0.8460    4.2994 H   0  0  0  0  0  0  0  0  0  0  0  0
    6.2767    1.5109    3.4868 H   0  0  0  0  0  0  0  0  0  0  0  0
    5.9070    1.2913    6.5326 H   0  0  0  0  0  0  0  0  0  0  0  0
    5.6818    2.7673    5.5789 H   0  0  0  0  0  0  0  0  0  0  0  0
    8.2227    1.4508    6.2954 H   0  0  0  0  0  0  0  0  0  0  0  0
   10.1620    2.4623    5.7475 H   0  0  0  0  0  0  0  0  0  0  0  0
   11.8245    8.1839    5.4414 H   0  0  0  0  0  0  0  0  0  0  0  0
    8.0727    8.1251    7.0708 H   0  0  0  0  0  0  0  0  0  0  0  0
   13.2742    4.0923    4.2533 H   0  0  0  0  0  0  0  0  0  0  0  0
   14.4763    2.8651    2.5738 H   0  0  0  0  0  0  0  0  0  0  0  0
   15.4800    1.0615    1.5755 H   0  0  0  0  0  0  0  0  0  0  0  0
   15.2310    2.4180    0.4563 H   0  0  0  0  0  0  0  0  0  0  0  0
   15.5259    0.7962   -0.1674 H   0  0  0  0  0  0  0  0  0  0  0  0
   13.6408   -0.7687    1.7993 H   0  0  0  0  0  0  0  0  0  0  0  0
   13.8762   -1.0012    0.0601 H   0  0  0  0  0  0  0  0  0  0  0  0
   12.2567   -0.7352    0.6965 H   0  0  0  0  0  0  0  0  0  0  0  0
   13.1153    2.5403   -0.9681 H   0  0  0  0  0  0  0  0  0  0  0  0
   11.9034    1.2528   -0.8933 H   0  0  0  0  0  0  0  0  0  0  0  0
   13.5012    0.9180   -1.5559 H   0  0  0  0  0  0  0  0  0  0  0  0
   10.7706    1.0944    1.2294 H   0  0  0  0  0  0  0  0  0  0  0  0
    9.5680    2.3780    2.9033 H   0  0  0  0  0  0  0  0  0  0  0  0
   11.8236    3.2864    7.5230 H   0  0  0  0  0  0  0  0  0  0  0  0
   11.8758    4.2409    9.8240 H   0  0  0  0  0  0  0  0  0  0  0  0
    9.8934    5.5093   10.6502 H   0  0  0  0  0  0  0  0  0  0  0  0
    7.8123    4.8416    7.1848 H   0  0  0  0  0  0  0  0  0  0  0  0
  1  2  1  0  0  0  0
  1 39  1  0  0  0  0
  1 40  1  0  0  0  0
  1 41  1  0  0  0  0
  2  3  1  0  0  0  0
  2  4  1  0  0  0  0
  2  5  1  0  0  0  0
  3 42  1  0  0  0  0
  3 43  1  0  0  0  0
  3 44  1  0  0  0  0
  4 45  1  0  0  0  0
  4 46  1  0  0  0  0
  4 47  1  0  0  0  0
  5  6  1  0  0  0  0
  6  7  2  0  0  0  0
  6  8  1  0  0  0  0
  8  9  1  0  0  0  0
  8 48  1  0  0  0  0
  9 10  1  0  0  0  0
  9 49  1  0  0  0  0
  9 50  1  0  0  0  0
 10 11  1  0  0  0  0
 10 51  1  0  0  0  0
 10 52  1  0  0  0  0
 11 12  1  0  0  0  0
 11 53  1  0  0  0  0
 12 13  2  0  0  0  0
 12 14  1  0  0  0  0
 14 15  1  0  0  0  0
 14 33  1  0  0  0  0
 14 54  1  0  0  0  0
 15 16  1  0  0  0  0
 15 23  1  0  0  0  0
 16 17  2  0  0  0  0
 16 18  1  0  0  0  0
 18 19  2  0  0  0  0
 18 22  1  0  0  0  0
 19 20  1  0  0  0  0
 19 55  1  0  0  0  0
 20 21  1  0  0  0  0
 21 22  2  0  0  0  0
 21 56  1  0  0  0  0
 23 24  1  0  0  0  0
 23 32  2  0  0  0  0
 24 25  2  0  0  0  0
 24 57  1  0  0  0  0
 25 26  1  0  0  0  0
 25 58  1  0  0  0  0
 26 27  1  0  0  0  0
 26 31  2  0  0  0  0
 27 28  1  0  0  0  0
 27 29  1  0  0  0  0
 27 30  1  0  0  0  0
 28 59  1  0  0  0  0
 28 60  1  0  0  0  0
 28 61  1  0  0  0  0
 29 62  1  0  0  0  0
 29 63  1  0  0  0  0
 29 64  1  0  0  0  0
 30 65  1  0  0  0  0
 30 66  1  0  0  0  0
 30 67  1  0  0  0  0
 31 32  1  0  0  0  0
 31 68  1  0  0  0  0
 32 69  1  0  0  0  0
 33 34  1  0  0  0  0
 33 38  2  0  0  0  0
 34 35  2  0  0  0  0
 34 70  1  0  0  0  0
 35 36  1  0  0  0  0
 35 71  1  0  0  0  0
 36 37  2  0  0  0  0
 36 72  1  0  0  0  0
 37 38  1  0  0  0  0
 38 73  1  0  0  0  0
M  END
$$$$
